REMARK  Name = ChemDiv-G355-3273 MCULE-6446847803 MolPort-010-743-030 PubChem-50793958 ZINC000035428416 ZINC35428416
REMARK  10 active torsions:
REMARK  status: ('A' for Active; 'I' for Inactive)
REMARK    1  A    between atoms: C_1  and  C_2
REMARK    2  A    between atoms: C_5  and  C_6
REMARK    3  A    between atoms: C_6  and  O_28
REMARK    4  A    between atoms: C_7  and  O_28
REMARK    5  A    between atoms: C_9  and  N_26
REMARK    6  A    between atoms: C_10  and  C_11
REMARK    7  A    between atoms: C_11  and  O_30
REMARK    8  A    between atoms: C_12  and  O_30
REMARK    9  A    between atoms: C_13  and  C_14
REMARK   10  A    between atoms: C_21  and  C_22
REMARK                            x       y       z     vdW  Elec       q    Type
REMARK                         _______ _______ _______ _____ _____    ______ ____
ROOT
ATOM      1  C   UNL     1      17.238 -10.316  14.451  0.00  0.00    +0.136 A 
ATOM      2  C   UNL     1      16.793  -9.332  15.343  0.00  0.00    +0.053 A 
ATOM      3  C   UNL     1      16.710  -9.580  16.719  0.00  0.00    +0.076 A 
ATOM      4  C   UNL     1      17.078 -10.833  17.210  0.00  0.00    +0.016 A 
ATOM      5  C   UNL     1      17.519 -11.829  16.339  0.00  0.00    +0.000 A 
ATOM      6  C   UNL     1      17.604 -11.588  14.964  0.00  0.00    +0.012 A 
ATOM      7  C   UNL     1      18.045 -12.723  14.105  0.00  0.00    +0.034 C 
ENDROOT
BRANCH   3   9
ATOM      8  C   UNL     1      15.827  -7.252  17.328  0.00  0.00    +0.290 C 
ATOM      9  N   UNL     1      16.265  -8.579  17.645  0.00  0.00    -0.176 N 
ATOM     10  O   UNL     1      15.793  -6.840  16.139  0.00  0.00    -0.269 OA
ATOM     11  H   UNL     1      16.262  -8.829  18.597  0.00  0.00    +0.000 HD
BRANCH   8  12
ATOM     12  C   UNL     1      15.384  -6.350  18.429  0.00  0.00    +0.291 C 
BRANCH  12  13
ATOM     13  O   UNL     1      13.967  -6.205  18.413  0.00  0.00    -0.466 OA
BRANCH  13  14
ATOM     14  C   UNL     1      13.085  -7.178  18.904  0.00  0.00    +0.135 A 
ATOM     15  C   UNL     1      11.698  -6.969  18.810  0.00  0.00    +0.012 A 
ATOM     16  C   UNL     1      11.153  -5.725  18.197  0.00  0.00    +0.034 C 
ATOM     17  C   UNL     1      10.809  -7.933  19.295  0.00  0.00    -0.001 A 
ATOM     18  C   UNL     1      11.292  -9.108  19.877  0.00  0.00    -0.000 A 
ATOM     19  C   UNL     1      12.669  -9.322  19.977  0.00  0.00    +0.003 A 
ATOM     20  C   UNL     1      13.561  -8.361  19.494  0.00  0.00    +0.037 A 
ENDBRANCH  13  14
ENDBRANCH  12  13
ENDBRANCH   8  12
ENDBRANCH   3   9
BRANCH   1  21
ATOM     21  O   UNL     1      17.286  -9.962  13.094  0.00  0.00    -0.469 OA
BRANCH  21  22
ATOM     22  C   UNL     1      17.932 -10.713  12.074  0.00  0.00    +0.251 C 
BRANCH  22  27
ATOM     23  C   UNL     1      18.417  -5.853   6.641  0.00  0.00    +0.075 C 
ATOM     24  C   UNL     1      18.179  -6.961   7.603  0.00  0.00    +0.155 A 
ATOM     25  C   UNL     1      18.731  -7.042   8.887  0.00  0.00    +0.076 A 
ATOM     26  C   UNL     1      18.193  -8.238   9.324  0.00  0.00    +0.185 A 
ATOM     27  C   UNL     1      17.753 -10.034  10.764  0.00  0.00    +0.109 A 
ATOM     28  C   UNL     1      16.922 -10.617   9.785  0.00  0.00    +0.082 A 
ATOM     29  C   UNL     1      16.761  -9.954   8.562  0.00  0.00    +0.296 A 
ATOM     30  N   UNL     1      18.381  -8.844  10.522  0.00  0.00    -0.226 NA
ATOM     31  N   UNL     1      17.414  -8.781   8.384  0.00  0.00    -0.118 N 
ATOM     32  O   UNL     1      16.030 -10.434   7.657  0.00  0.00    -0.264 OA
ATOM     33  O   UNL     1      17.412  -8.004   7.350  0.00  0.00    -0.371 OA
ENDBRANCH  22  27
ENDBRANCH  21  22
ENDBRANCH   1  21
TORSDOF 7
