REMARK  Name = ChemDiv-D439-4147 MCULE-6273110940 MolPort-007-706-779 PubChem-46268361 ZINC000021797132 ZINC21797132
REMARK  13 active torsions:
REMARK  status: ('A' for Active; 'I' for Inactive)
REMARK    1  A    between atoms: C_1  and  C_2
REMARK    2  A    between atoms: C_2  and  C_3
REMARK    3  A    between atoms: C_4  and  O_27
REMARK    4  A    between atoms: C_5  and  C_6
REMARK    5  A    between atoms: C_5  and  O_27
REMARK    6  A    between atoms: C_7  and  N_31
REMARK    7  A    between atoms: C_10  and  C_11
REMARK    8  A    between atoms: C_12  and  O_29
REMARK    9  A    between atoms: C_13  and  C_14
REMARK   10  A    between atoms: C_13  and  O_29
REMARK   11  A    between atoms: C_19  and  C_20
REMARK   12  A    between atoms: C_19  and  C_21
REMARK   13  A    between atoms: C_19  and  N_33
REMARK                            x       y       z     vdW  Elec       q    Type
REMARK                         _______ _______ _______ _____ _____    ______ ____
ROOT
ATOM      1  C   UNL     1      16.703  -9.323  16.655  0.00  0.00    +0.076 A 
ATOM      2  C   UNL     1      17.004 -10.569  17.206  0.00  0.00    +0.016 A 
ATOM      3  C   UNL     1      17.400 -11.625  16.385  0.00  0.00    +0.000 A 
ATOM      4  C   UNL     1      17.502 -11.454  15.001  0.00  0.00    +0.012 A 
ATOM      5  C   UNL     1      17.935 -12.636  14.204  0.00  0.00    +0.034 C 
ATOM      6  C   UNL     1      17.199 -10.191  14.426  0.00  0.00    +0.136 A 
ATOM      7  C   UNL     1      16.804  -9.146  15.269  0.00  0.00    +0.053 A 
ENDROOT
BRANCH   1  10
ATOM      8  C   UNL     1      15.946  -6.925  17.149  0.00  0.00    +0.290 C 
ATOM      9  O   UNL     1      15.935  -6.569  15.941  0.00  0.00    -0.269 OA
ATOM     10  N   UNL     1      16.301  -8.261  17.530  0.00  0.00    -0.176 N 
ATOM     11  H   UNL     1      16.266  -8.470  18.491  0.00  0.00    +0.000 HD
BRANCH   8  12
ATOM     12  C   UNL     1      15.544  -5.953  18.199  0.00  0.00    +0.291 C 
BRANCH  12  13
ATOM     13  O   UNL     1      14.170  -6.136  18.515  0.00  0.00    -0.466 OA
BRANCH  13  15
ATOM     14  C   UNL     1      12.143  -5.609  19.737  0.00  0.00    +0.012 A 
ATOM     15  C   UNL     1      13.504  -5.367  19.476  0.00  0.00    +0.135 A 
ATOM     16  C   UNL     1      14.171  -4.354  20.185  0.00  0.00    +0.037 A 
ATOM     17  C   UNL     1      13.495  -3.597  21.144  0.00  0.00    +0.003 A 
ATOM     18  C   UNL     1      12.146  -3.845  21.405  0.00  0.00    -0.000 A 
ATOM     19  C   UNL     1      11.473  -4.850  20.705  0.00  0.00    -0.001 A 
BRANCH  14  21
ATOM     20  C   UNL     1      10.345  -6.104  18.106  0.00  0.00    +0.005 C 
ATOM     21  C   UNL     1      11.413  -6.692  19.011  0.00  0.00    +0.029 C 
ENDBRANCH  14  21
ENDBRANCH  13  15
ENDBRANCH  12  13
ENDBRANCH   8  12
ENDBRANCH   1  10
BRANCH   6  22
ATOM     22  O   UNL     1      17.265  -9.900  13.054  0.00  0.00    -0.469 OA
BRANCH  22  23
ATOM     23  C   UNL     1      17.627 -10.819  12.033  0.00  0.00    +0.251 C 
BRANCH  23  24
ATOM     24  C   UNL     1      17.582 -10.139  10.712  0.00  0.00    +0.111 A 
ATOM     25  C   UNL     1      16.405 -10.192   9.939  0.00  0.00    +0.081 A 
ATOM     26  C   UNL     1      16.377  -9.522   8.710  0.00  0.00    +0.283 A 
ATOM     27  C   UNL     1      19.003  -7.670   7.350  0.00  0.00    +0.197 A 
ATOM     28  C   UNL     1      18.597  -8.802   9.078  0.00  0.00    +0.255 A 
ATOM     29  O   UNL     1      15.344  -9.549   7.989  0.00  0.00    -0.265 OA
ATOM     30  N   UNL     1      17.494  -8.847   8.328  0.00  0.00    -0.179 N 
ATOM     31  N   UNL     1      17.736  -8.140   7.239  0.00  0.00    -0.244 N 
ATOM     32  N   UNL     1      19.581  -8.075   8.514  0.00  0.00    -0.188 NA
ATOM     33  N   UNL     1      18.668  -9.434  10.274  0.00  0.00    -0.210 NA
BRANCH  31  34
ATOM     34  C   UNL     1      16.808  -7.918   6.133  0.00  0.00    +0.106 C 
ATOM     35  C   UNL     1      17.369  -8.489   4.844  0.00  0.00    +0.026 C 
ATOM     36  C   UNL     1      16.524  -6.437   5.965  0.00  0.00    +0.026 C 
ENDBRANCH  31  34
ENDBRANCH  23  24
ENDBRANCH  22  23
ENDBRANCH   6  22
TORSDOF 9
