MODEL 1
REMARK VINA RESULT:      -7.7      0.000      0.000
REMARK  8 active torsions:
REMARK  status: ('A' for Active; 'I' for Inactive)
REMARK       I    between atoms: C16_2  and  N14_3 
REMARK    1  A    between atoms: C16_2  and  C18_20 
REMARK    2  A    between atoms: C11_4  and  N14_3 
REMARK    3  A    between atoms: C8_6  and  N51_7 
REMARK    4  A    between atoms: C55_9  and  C58_10 
REMARK    5  A    between atoms: C2_16  and  C5_15 
REMARK    6  A    between atoms: C22_23  and  C27_24 
REMARK    7  A    between atoms: C21_25  and  N31_27 
REMARK       I    between atoms: C33_28  and  N31_27 
REMARK    8  A    between atoms: C35_32  and  C41_34 
ROOT
HETATM    1  C18 NIL A 600      23.059  -1.766   9.537  1.00 31.05     0.034 A 
HETATM    2  C25 NIL A 600      22.671  -2.746  10.463  1.00 32.21    -0.067 A 
HETATM    3  C23 NIL A 600      23.403  -2.973  11.631  1.00 32.41    -0.074 A 
HETATM    4  C22 NIL A 600      24.587  -2.298  11.878  1.00 32.00    -0.035 A 
HETATM    5  C21 NIL A 600      25.033  -1.398  10.911  1.00 30.01     0.056 A 
HETATM    6  C19 NIL A 600      24.271  -1.166   9.759  1.00 27.29    -0.041 A 
HETATM    7  H25 NIL A 600      21.788  -3.336  10.270  1.00  0.00     0.085 H 
HETATM    8  H23 NIL A 600      23.040  -3.689  12.353  1.00  0.00     0.084 H 
HETATM    9  H19 NIL A 600      24.655  -0.484   9.014  1.00  0.00     0.088 H 
ENDROOT
BRANCH   1  10
HETATM   10  C16 NIL A 600      22.421  -1.547   8.224  1.00 32.06     0.256 C 
HETATM   11  N14 NIL A 600      23.250  -1.315   7.195  1.00 33.50    -0.323 N 
HETATM   12  H14 NIL A 600      24.241  -1.370   7.382  1.00  0.00     0.169 HD
HETATM   13  O17 NIL A 600      21.227  -1.375   8.250  1.00 32.17    -0.267 OA
BRANCH  11  14
HETATM   14  C11 NIL A 600      22.871  -1.003   5.896  1.00 35.33     0.037 A 
HETATM   15  C9  NIL A 600      23.472   0.077   5.202  1.00 34.24    -0.031 A 
HETATM   16  C8  NIL A 600      23.104   0.392   3.891  1.00 36.11     0.042 A 
HETATM   17  H9  NIL A 600      24.228   0.668   5.697  1.00  0.00     0.090 H 
HETATM   18  C6  NIL A 600      22.077  -0.317   3.278  1.00 33.87    -0.042 A 
HETATM   19  C5  NIL A 600      21.437  -1.371   3.936  1.00 36.05     0.052 A 
HETATM   20  H6  NIL A 600      21.768  -0.050   2.279  1.00  0.00     0.088 H 
HETATM   21  C12 NIL A 600      21.795  -1.679   5.280  1.00 39.32    -0.042 A 
HETATM   22  H12 NIL A 600      21.244  -2.428   5.828  1.00  0.00     0.088 H 
BRANCH  16  23
HETATM   23  N51 NIL A 600      23.723   1.432   3.182  1.00 40.77    -0.315 N 
HETATM   24  C52 NIL A 600      23.190   2.151   2.187  1.00 44.44     0.070 A 
HETATM   25  N54 NIL A 600      23.999   3.087   1.755  1.00 46.75    -0.247 NA
HETATM   26  H52 NIL A 600      22.202   1.979   1.785  1.00  0.00     0.144 H 
HETATM   27  C55 NIL A 600      25.109   3.042   2.524  1.00 45.13     0.048 A 
HETATM   28  C56 NIL A 600      24.968   2.020   3.396  1.00 45.15     0.010 A 
HETATM   29  H56 NIL A 600      25.695   1.711   4.133  1.00  0.00     0.115 H 
BRANCH  27  30
HETATM   30  C58 NIL A 600      26.292   3.963   2.357  1.00 44.78    -0.034 C 
HETATM   31 3H58 NIL A 600      26.145   4.589   1.476  1.00  0.00     0.035 H 
HETATM   32 1H58 NIL A 600      27.200   3.371   2.234  1.00  0.00     0.035 H 
HETATM   33 2H58 NIL A 600      26.389   4.595   3.240  1.00  0.00     0.035 H 
ENDBRANCH  27  30
ENDBRANCH  16  23
BRANCH  19  34
HETATM   34  C2  NIL A 600      20.333  -2.142   3.288  1.00 35.22     0.417 C 
HETATM   35  F3  NIL A 600      19.212  -1.432   3.253  1.00 37.00    -0.166 F 
HETATM   36  F4  NIL A 600      19.944  -3.247   3.955  1.00 38.86    -0.166 F 
HETATM   37  F1  NIL A 600      20.683  -2.615   2.074  1.00 34.70    -0.166 F 
ENDBRANCH  19  34
ENDBRANCH  11  14
ENDBRANCH   1  10
BRANCH   5  38
HETATM   38  N31 NIL A 600      26.136  -0.588  11.211  1.00 31.48    -0.188 N 
HETATM   39  C33 NIL A 600      27.386  -0.905  10.677  1.00 33.06     0.727 A 
HETATM   40  N34 NIL A 600      28.300  -0.078  11.250  1.00 33.13    -0.062 NA
HETATM   41  N40 NIL A 600      27.708  -1.871   9.826  1.00 33.19    -0.075 NA
HETATM   42  C35 NIL A 600      29.586  -0.252  10.924  1.00 35.47     0.089 A 
HETATM   43  C36 NIL A 600      29.961  -1.210  10.048  1.00 31.87    -0.036 A 
HETATM   44  H36 NIL A 600      31.000  -1.347   9.792  1.00  0.00     0.089 H 
HETATM   45  C38 NIL A 600      29.010  -1.986   9.505  1.00 31.28     0.023 A 
HETATM   46  H38 NIL A 600      29.302  -2.733   8.780  1.00  0.00     0.115 H 
HETATM   47  H31 NIL A 600      26.026   0.220  11.808  1.00  0.00     0.184 HD
BRANCH  42  48
HETATM   48  C41 NIL A 600      30.541   0.699  11.549  1.00 34.45     0.011 A 
HETATM   49  C42 NIL A 600      30.563   0.875  12.947  1.00 35.89     0.014 A 
HETATM   50  N44 NIL A 600      31.420   1.692  13.572  1.00 37.63    -0.272 NA
HETATM   51  H42 NIL A 600      29.853   0.323  13.545  1.00  0.00     0.116 H 
HETATM   52  C45 NIL A 600      32.267   2.404  12.809  1.00 38.74     0.002 A 
HETATM   53  C47 NIL A 600      32.341   2.292  11.421  1.00 36.18    -0.065 A 
HETATM   54  H45 NIL A 600      32.928   3.104  13.299  1.00  0.00     0.114 H 
HETATM   55  C49 NIL A 600      31.455   1.436  10.780  1.00 35.27    -0.068 A 
HETATM   56  H47 NIL A 600      33.071   2.856  10.859  1.00  0.00     0.085 H 
HETATM   57  H49 NIL A 600      31.469   1.339   9.704  1.00  0.00     0.085 H 
ENDBRANCH  42  48
ENDBRANCH   5  38
BRANCH   4  58
HETATM   58  C27 NIL A 600      25.379  -2.562  13.151  1.00 33.15    -0.049 C 
HETATM   59 1H27 NIL A 600      24.850  -2.137  14.005  1.00  0.00     0.033 H 
HETATM   60 2H27 NIL A 600      26.364  -2.101  13.068  1.00  0.00     0.033 H 
HETATM   61 3H27 NIL A 600      25.494  -3.636  13.292  1.00  0.00     0.033 H 
ENDBRANCH   4  58
TORSDOF 8
ENDMDL
MODEL 2
REMARK VINA RESULT:      -7.5      2.202      3.725
REMARK  8 active torsions:
REMARK  status: ('A' for Active; 'I' for Inactive)
REMARK       I    between atoms: C16_2  and  N14_3 
REMARK    1  A    between atoms: C16_2  and  C18_20 
REMARK    2  A    between atoms: C11_4  and  N14_3 
REMARK    3  A    between atoms: C8_6  and  N51_7 
REMARK    4  A    between atoms: C55_9  and  C58_10 
REMARK    5  A    between atoms: C2_16  and  C5_15 
REMARK    6  A    between atoms: C22_23  and  C27_24 
REMARK    7  A    between atoms: C21_25  and  N31_27 
REMARK       I    between atoms: C33_28  and  N31_27 
REMARK    8  A    between atoms: C35_32  and  C41_34 
ROOT
HETATM    1  C18 NIL A 600      23.060  -1.785   9.570  1.00 31.05     0.034 A 
HETATM    2  C25 NIL A 600      22.681  -2.776  10.488  1.00 32.21    -0.067 A 
HETATM    3  C23 NIL A 600      23.417  -3.008  11.652  1.00 32.41    -0.074 A 
HETATM    4  C22 NIL A 600      24.597  -2.327  11.903  1.00 32.00    -0.035 A 
HETATM    5  C21 NIL A 600      25.035  -1.415  10.944  1.00 30.01     0.056 A 
HETATM    6  C19 NIL A 600      24.268  -1.178   9.795  1.00 27.29    -0.041 A 
HETATM    7  H25 NIL A 600      21.802  -3.371  10.292  1.00  0.00     0.085 H 
HETATM    8  H23 NIL A 600      23.061  -3.733  12.369  1.00  0.00     0.084 H 
HETATM    9  H19 NIL A 600      24.646  -0.487   9.056  1.00  0.00     0.088 H 
ENDROOT
BRANCH   1  10
HETATM   10  C16 NIL A 600      22.418  -1.559   8.261  1.00 32.06     0.256 C 
HETATM   11  N14 NIL A 600      23.244  -1.325   7.229  1.00 33.50    -0.323 N 
HETATM   12  H14 NIL A 600      24.235  -1.384   7.412  1.00  0.00     0.169 HD
HETATM   13  O17 NIL A 600      21.225  -1.384   8.291  1.00 32.17    -0.267 OA
BRANCH  11  14
HETATM   14  C11 NIL A 600      22.861  -1.006   5.933  1.00 35.33     0.037 A 
HETATM   15  C9  NIL A 600      21.896  -1.785   5.247  1.00 34.24    -0.031 A 
HETATM   16  C8  NIL A 600      21.496  -1.467   3.947  1.00 36.11     0.042 A 
HETATM   17  H9  NIL A 600      21.462  -2.643   5.739  1.00  0.00     0.090 H 
HETATM   18  C6  NIL A 600      22.109  -0.411   3.281  1.00 33.87    -0.042 A 
HETATM   19  C5  NIL A 600      23.085   0.367   3.909  1.00 36.05     0.052 A 
HETATM   20  H6  NIL A 600      21.826  -0.187   2.264  1.00  0.00     0.088 H 
HETATM   21  C12 NIL A 600      23.511   0.029   5.226  1.00 39.32    -0.042 A 
HETATM   22  H12 NIL A 600      24.328   0.565   5.683  1.00  0.00     0.088 H 
BRANCH  16  23
HETATM   23  N51 NIL A 600      20.512  -2.207   3.276  1.00 40.77    -0.315 N 
HETATM   24  C52 NIL A 600      19.713  -3.142   3.805  1.00 44.44     0.070 A 
HETATM   25  N54 NIL A 600      18.860  -3.624   2.934  1.00 46.75    -0.247 NA
HETATM   26  H52 NIL A 600      19.765  -3.463   4.834  1.00  0.00     0.144 H 
HETATM   27  C55 NIL A 600      19.047  -2.951   1.777  1.00 45.13     0.048 A 
HETATM   28  C56 NIL A 600      20.069  -2.088   1.960  1.00 45.15     0.010 A 
HETATM   29  H56 NIL A 600      20.475  -1.419   1.214  1.00  0.00     0.115 H 
BRANCH  27  30
HETATM   30  C58 NIL A 600      18.256  -3.200   0.516  1.00 44.78    -0.034 C 
HETATM   31 3H58 NIL A 600      17.423  -3.869   0.735  1.00  0.00     0.035 H 
HETATM   32 1H58 NIL A 600      18.902  -3.659  -0.234  1.00  0.00     0.035 H 
HETATM   33 2H58 NIL A 600      17.873  -2.254   0.134  1.00  0.00     0.035 H 
ENDBRANCH  27  30
ENDBRANCH  16  23
BRANCH  19  34
HETATM   34  C2  NIL A 600      23.750   1.506   3.206  1.00 35.22     0.417 C 
HETATM   35  F3  NIL A 600      24.729   1.075   2.419  1.00 37.00    -0.166 F 
HETATM   36  F4  NIL A 600      24.399   2.371   4.010  1.00 38.86    -0.166 F 
HETATM   37  F1  NIL A 600      22.868   2.287   2.550  1.00 34.70    -0.166 F 
ENDBRANCH  19  34
ENDBRANCH  11  14
ENDBRANCH   1  10
BRANCH   5  38
HETATM   38  N31 NIL A 600      26.132  -0.600  11.249  1.00 31.48    -0.188 N 
HETATM   39  C33 NIL A 600      27.379  -0.891  10.693  1.00 33.06     0.727 A 
HETATM   40  N34 NIL A 600      28.291  -0.067  11.273  1.00 33.13    -0.062 NA
HETATM   41  N40 NIL A 600      27.701  -1.833   9.816  1.00 33.19    -0.075 NA
HETATM   42  C35 NIL A 600      29.574  -0.219  10.927  1.00 35.47     0.089 A 
HETATM   43  C36 NIL A 600      29.949  -1.153  10.026  1.00 31.87    -0.036 A 
HETATM   44  H36 NIL A 600      30.987  -1.273   9.754  1.00  0.00     0.089 H 
HETATM   45  C38 NIL A 600      29.000  -1.927   9.477  1.00 31.28     0.023 A 
HETATM   46  H38 NIL A 600      29.291  -2.654   8.732  1.00  0.00     0.115 H 
HETATM   47  H31 NIL A 600      26.021   0.193  11.865  1.00  0.00     0.184 HD
BRANCH  42  48
HETATM   48  C41 NIL A 600      30.526   0.728  11.563  1.00 34.45     0.011 A 
HETATM   49  C42 NIL A 600      30.546   0.892  12.962  1.00 35.89     0.014 A 
HETATM   50  N44 NIL A 600      31.401   1.705  13.595  1.00 37.63    -0.272 NA
HETATM   51  H42 NIL A 600      29.835   0.334  13.554  1.00  0.00     0.116 H 
HETATM   52  C45 NIL A 600      32.248   2.425  12.840  1.00 38.74     0.002 A 
HETATM   53  C47 NIL A 600      32.325   2.325  11.452  1.00 36.18    -0.065 A 
HETATM   54  H45 NIL A 600      32.906   3.122  13.338  1.00  0.00     0.114 H 
HETATM   55  C49 NIL A 600      31.441   1.473  10.802  1.00 35.27    -0.068 A 
HETATM   56  H47 NIL A 600      33.054   2.895  10.896  1.00  0.00     0.085 H 
HETATM   57  H49 NIL A 600      31.457   1.385   9.725  1.00  0.00     0.085 H 
ENDBRANCH  42  48
ENDBRANCH   5  38
BRANCH   4  58
HETATM   58  C27 NIL A 600      25.394  -2.597  13.172  1.00 33.15    -0.049 C 
HETATM   59 1H27 NIL A 600      25.926  -1.692  13.468  1.00  0.00     0.033 H 
HETATM   60 2H27 NIL A 600      26.111  -3.396  12.987  1.00  0.00     0.033 H 
HETATM   61 3H27 NIL A 600      24.715  -2.897  13.970  1.00  0.00     0.033 H 
ENDBRANCH   4  58
TORSDOF 8
ENDMDL
MODEL 3
REMARK VINA RESULT:      -7.3      6.670      9.774
REMARK  8 active torsions:
REMARK  status: ('A' for Active; 'I' for Inactive)
REMARK       I    between atoms: C16_2  and  N14_3 
REMARK    1  A    between atoms: C16_2  and  C18_20 
REMARK    2  A    between atoms: C11_4  and  N14_3 
REMARK    3  A    between atoms: C8_6  and  N51_7 
REMARK    4  A    between atoms: C55_9  and  C58_10 
REMARK    5  A    between atoms: C2_16  and  C5_15 
REMARK    6  A    between atoms: C22_23  and  C27_24 
REMARK    7  A    between atoms: C21_25  and  N31_27 
REMARK       I    between atoms: C33_28  and  N31_27 
REMARK    8  A    between atoms: C35_32  and  C41_34 
ROOT
HETATM    1  C18 NIL A 600      22.598   2.356   1.037  1.00 31.05     0.034 A 
HETATM    2  C25 NIL A 600      21.628   1.585   1.695  1.00 32.21    -0.067 A 
HETATM    3  C23 NIL A 600      21.957   0.781   2.788  1.00 32.41    -0.074 A 
HETATM    4  C22 NIL A 600      23.269   0.646   3.211  1.00 32.00    -0.035 A 
HETATM    5  C21 NIL A 600      24.253   1.327   2.496  1.00 30.01     0.056 A 
HETATM    6  C19 NIL A 600      23.899   2.150   1.418  1.00 27.29    -0.041 A 
HETATM    7  H25 NIL A 600      20.605   1.616   1.351  1.00  0.00     0.085 H 
HETATM    8  H23 NIL A 600      21.174   0.253   3.311  1.00  0.00     0.084 H 
HETATM    9  H19 NIL A 600      24.684   2.643   0.865  1.00  0.00     0.088 H 
ENDROOT
BRANCH   1  10
HETATM   10  C16 NIL A 600      22.365   3.131  -0.197  1.00 32.06     0.256 C 
HETATM   11  N14 NIL A 600      21.480   4.136  -0.106  1.00 33.50    -0.323 N 
HETATM   12  H14 NIL A 600      21.091   4.325   0.807  1.00  0.00     0.169 HD
HETATM   13  O17 NIL A 600      22.815   2.648  -1.206  1.00 32.17    -0.267 OA
BRANCH  11  14
HETATM   14  C11 NIL A 600      21.046   4.939  -1.153  1.00 35.33     0.037 A 
HETATM   15  C9  NIL A 600      19.732   4.817  -1.668  1.00 34.24    -0.031 A 
HETATM   16  C8  NIL A 600      19.284   5.627  -2.714  1.00 36.11     0.042 A 
HETATM   17  H9  NIL A 600      19.064   4.081  -1.245  1.00  0.00     0.090 H 
HETATM   18  C6  NIL A 600      20.164   6.521  -3.315  1.00 33.87    -0.042 A 
HETATM   19  C5  NIL A 600      21.478   6.654  -2.857  1.00 36.05     0.052 A 
HETATM   20  H6  NIL A 600      19.828   7.121  -4.146  1.00  0.00     0.088 H 
HETATM   21  C12 NIL A 600      21.943   5.812  -1.806  1.00 39.32    -0.042 A 
HETATM   22  H12 NIL A 600      22.980   5.843  -1.509  1.00  0.00     0.088 H 
BRANCH  16  23
HETATM   23  N51 NIL A 600      17.972   5.542  -3.203  1.00 40.77    -0.315 N 
HETATM   24  C52 NIL A 600      17.155   4.484  -3.126  1.00 44.44     0.070 A 
HETATM   25  N54 NIL A 600      15.971   4.726  -3.632  1.00 46.75    -0.247 NA
HETATM   26  H52 NIL A 600      17.441   3.536  -2.694  1.00  0.00     0.144 H 
HETATM   27  C55 NIL A 600      15.960   6.020  -4.020  1.00 45.13     0.048 A 
HETATM   28  C56 NIL A 600      17.185   6.535  -3.782  1.00 45.15     0.010 A 
HETATM   29  H56 NIL A 600      17.502   7.545  -4.003  1.00  0.00     0.115 H 
BRANCH  27  30
HETATM   30  C58 NIL A 600      14.772   6.703  -4.654  1.00 44.78    -0.034 C 
HETATM   31 3H58 NIL A 600      14.302   7.364  -3.926  1.00  0.00     0.035 H 
HETATM   32 1H58 NIL A 600      14.052   5.952  -4.982  1.00  0.00     0.035 H 
HETATM   33 2H58 NIL A 600      15.104   7.286  -5.513  1.00  0.00     0.035 H 
ENDBRANCH  27  30
ENDBRANCH  16  23
BRANCH  19  34
HETATM   34  C2  NIL A 600      22.433   7.612  -3.491  1.00 35.22     0.417 C 
HETATM   35  F3  NIL A 600      23.068   7.047  -4.512  1.00 37.00    -0.166 F 
HETATM   36  F4  NIL A 600      23.457   7.999  -2.706  1.00 38.86    -0.166 F 
HETATM   37  F1  NIL A 600      21.842   8.775  -3.832  1.00 34.70    -0.166 F 
ENDBRANCH  19  34
ENDBRANCH  11  14
ENDBRANCH   1  10
BRANCH   5  38
HETATM   38  N31 NIL A 600      25.559   1.337   3.000  1.00 31.48    -0.188 N 
HETATM   39  C33 NIL A 600      26.182   2.558   3.268  1.00 33.06     0.727 A 
HETATM   40  N34 NIL A 600      27.479   2.298   3.580  1.00 33.13    -0.062 NA
HETATM   41  N40 NIL A 600      25.685   3.785   3.178  1.00 33.19    -0.075 NA
HETATM   42  C35 NIL A 600      28.283   3.341   3.814  1.00 35.47     0.089 A 
HETATM   43  C36 NIL A 600      27.818   4.608   3.753  1.00 31.87    -0.036 A 
HETATM   44  H36 NIL A 600      28.473   5.446   3.939  1.00  0.00     0.089 H 
HETATM   45  C38 NIL A 600      26.524   4.800   3.454  1.00 31.28     0.023 A 
HETATM   46  H38 NIL A 600      26.141   5.811   3.434  1.00  0.00     0.115 H 
HETATM   47  H31 NIL A 600      26.045   0.468   3.171  1.00  0.00     0.184 HD
BRANCH  42  48
HETATM   48  C41 NIL A 600      29.681   3.003   4.185  1.00 34.45     0.011 A 
HETATM   49  C42 NIL A 600      30.392   2.016   3.473  1.00 35.89     0.014 A 
HETATM   50  N44 NIL A 600      31.663   1.690   3.738  1.00 37.63    -0.272 NA
HETATM   51  H42 NIL A 600      29.885   1.496   2.674  1.00  0.00     0.116 H 
HETATM   52  C45 NIL A 600      32.263   2.315   4.766  1.00 38.74     0.002 A 
HETATM   53  C47 NIL A 600      31.659   3.319   5.521  1.00 36.18    -0.065 A 
HETATM   54  H45 NIL A 600      33.271   2.023   5.020  1.00  0.00     0.114 H 
HETATM   55  C49 NIL A 600      30.343   3.659   5.235  1.00 35.27    -0.068 A 
HETATM   56  H47 NIL A 600      32.202   3.821   6.308  1.00  0.00     0.085 H 
HETATM   57  H49 NIL A 600      29.835   4.418   5.814  1.00  0.00     0.085 H 
ENDBRANCH  42  48
ENDBRANCH   5  38
BRANCH   4  58
HETATM   58  C27 NIL A 600      23.614  -0.242   4.399  1.00 33.15    -0.049 C 
HETATM   59 1H27 NIL A 600      23.255   0.223   5.317  1.00  0.00     0.033 H 
HETATM   60 2H27 NIL A 600      24.695  -0.369   4.454  1.00  0.00     0.033 H 
HETATM   61 3H27 NIL A 600      23.141  -1.215   4.274  1.00  0.00     0.033 H 
ENDBRANCH   4  58
TORSDOF 8
ENDMDL
MODEL 4
REMARK VINA RESULT:      -7.2      4.573      7.401
REMARK  8 active torsions:
REMARK  status: ('A' for Active; 'I' for Inactive)
REMARK       I    between atoms: C16_2  and  N14_3 
REMARK    1  A    between atoms: C16_2  and  C18_20 
REMARK    2  A    between atoms: C11_4  and  N14_3 
REMARK    3  A    between atoms: C8_6  and  N51_7 
REMARK    4  A    between atoms: C55_9  and  C58_10 
REMARK    5  A    between atoms: C2_16  and  C5_15 
REMARK    6  A    between atoms: C22_23  and  C27_24 
REMARK    7  A    between atoms: C21_25  and  N31_27 
REMARK       I    between atoms: C33_28  and  N31_27 
REMARK    8  A    between atoms: C35_32  and  C41_34 
ROOT
HETATM    1  C18 NIL A 600      22.955   0.866   3.283  1.00 31.05     0.034 A 
HETATM    2  C25 NIL A 600      22.200  -0.146   2.671  1.00 32.21    -0.067 A 
HETATM    3  C23 NIL A 600      21.721  -1.236   3.399  1.00 32.41    -0.074 A 
HETATM    4  C22 NIL A 600      22.045  -1.406   4.735  1.00 32.00    -0.035 A 
HETATM    5  C21 NIL A 600      22.882  -0.458   5.323  1.00 30.01     0.056 A 
HETATM    6  C19 NIL A 600      23.330   0.643   4.582  1.00 27.29    -0.041 A 
HETATM    7  H25 NIL A 600      21.983  -0.079   1.615  1.00  0.00     0.085 H 
HETATM    8  H23 NIL A 600      21.088  -1.963   2.911  1.00  0.00     0.084 H 
HETATM    9  H19 NIL A 600      24.000   1.346   5.055  1.00  0.00     0.088 H 
ENDROOT
BRANCH   1  10
HETATM   10  C16 NIL A 600      23.604   1.983   2.569  1.00 32.06     0.256 C 
HETATM   11  N14 NIL A 600      24.918   2.144   2.793  1.00 33.50    -0.323 N 
HETATM   12  H14 NIL A 600      25.372   1.457   3.377  1.00  0.00     0.169 HD
HETATM   13  O17 NIL A 600      22.854   2.767   2.041  1.00 32.17    -0.267 OA
BRANCH  11  14
HETATM   14  C11 NIL A 600      25.710   3.171   2.296  1.00 35.33     0.037 A 
HETATM   15  C9  NIL A 600      25.345   3.866   1.116  1.00 34.24    -0.031 A 
HETATM   16  C8  NIL A 600      26.131   4.907   0.614  1.00 36.11     0.042 A 
HETATM   17  H9  NIL A 600      24.443   3.583   0.593  1.00  0.00     0.090 H 
HETATM   18  C6  NIL A 600      27.332   5.221   1.239  1.00 33.87    -0.042 A 
HETATM   19  C5  NIL A 600      27.745   4.543   2.389  1.00 36.05     0.052 A 
HETATM   20  H6  NIL A 600      27.956   6.001   0.831  1.00  0.00     0.088 H 
HETATM   21  C12 NIL A 600      26.957   3.466   2.888  1.00 39.32    -0.042 A 
HETATM   22  H12 NIL A 600      27.313   2.877   3.720  1.00  0.00     0.088 H 
BRANCH  16  23
HETATM   23  N51 NIL A 600      25.756   5.627  -0.530  1.00 40.77    -0.315 N 
HETATM   24  C52 NIL A 600      26.529   5.916  -1.584  1.00 44.44     0.070 A 
HETATM   25  N54 NIL A 600      25.880   6.564  -2.519  1.00 46.75    -0.247 NA
HETATM   26  H52 NIL A 600      27.572   5.645  -1.655  1.00  0.00     0.144 H 
HETATM   27  C55 NIL A 600      24.596   6.672  -2.113  1.00 45.13     0.048 A 
HETATM   28  C56 NIL A 600      24.502   6.120  -0.884  1.00 45.15     0.010 A 
HETATM   29  H56 NIL A 600      23.607   6.068  -0.279  1.00  0.00     0.115 H 
BRANCH  27  30
HETATM   30  C58 NIL A 600      23.510   7.352  -2.911  1.00 44.78    -0.034 C 
HETATM   31 3H58 NIL A 600      23.794   8.387  -3.103  1.00  0.00     0.035 H 
HETATM   32 1H58 NIL A 600      22.576   7.331  -2.347  1.00  0.00     0.035 H 
HETATM   33 2H58 NIL A 600      23.373   6.830  -3.857  1.00  0.00     0.035 H 
ENDBRANCH  27  30
ENDBRANCH  16  23
BRANCH  19  34
HETATM   34  C2  NIL A 600      29.032   4.873   3.072  1.00 35.22     0.417 C 
HETATM   35  F3  NIL A 600      29.634   3.773   3.512  1.00 37.00    -0.166 F 
HETATM   36  F4  NIL A 600      28.909   5.595   4.203  1.00 38.86    -0.166 F 
HETATM   37  F1  NIL A 600      29.841   5.630   2.302  1.00 34.70    -0.166 F 
ENDBRANCH  19  34
ENDBRANCH  11  14
ENDBRANCH   1  10
BRANCH   5  38
HETATM   38  N31 NIL A 600      23.090  -0.518   6.707  1.00 31.48    -0.188 N 
HETATM   39  C33 NIL A 600      24.248  -1.120   7.202  1.00 33.06     0.727 A 
HETATM   40  N34 NIL A 600      24.127  -1.199   8.553  1.00 33.13    -0.062 NA
HETATM   41  N40 NIL A 600      25.280  -1.617   6.532  1.00 33.19    -0.075 NA
HETATM   42  C35 NIL A 600      25.108  -1.804   9.231  1.00 35.47     0.089 A 
HETATM   43  C36 NIL A 600      26.187  -2.310   8.595  1.00 31.87    -0.036 A 
HETATM   44  H36 NIL A 600      26.974  -2.801   9.148  1.00  0.00     0.089 H 
HETATM   45  C38 NIL A 600      26.257  -2.188   7.260  1.00 31.28     0.023 A 
HETATM   46  H38 NIL A 600      27.133  -2.564   6.751  1.00  0.00     0.115 H 
HETATM   47  H31 NIL A 600      22.407  -0.127   7.341  1.00  0.00     0.184 HD
BRANCH  42  48
HETATM   48  C41 NIL A 600      24.944  -1.833  10.707  1.00 34.45     0.011 A 
HETATM   49  C42 NIL A 600      26.070  -1.790  11.553  1.00 35.89     0.014 A 
HETATM   50  N44 NIL A 600      25.986  -1.782  12.889  1.00 37.63    -0.272 NA
HETATM   51  H42 NIL A 600      27.051  -1.764  11.101  1.00  0.00     0.116 H 
HETATM   52  C45 NIL A 600      24.760  -1.861  13.435  1.00 38.74     0.002 A 
HETATM   53  C47 NIL A 600      23.582  -1.888  12.691  1.00 36.18    -0.065 A 
HETATM   54  H45 NIL A 600      24.685  -1.906  14.511  1.00  0.00     0.114 H 
HETATM   55  C49 NIL A 600      23.675  -1.888  11.306  1.00 35.27    -0.068 A 
HETATM   56  H47 NIL A 600      22.619  -1.907  13.181  1.00  0.00     0.085 H 
HETATM   57  H49 NIL A 600      22.784  -1.930  10.696  1.00  0.00     0.085 H 
ENDBRANCH  42  48
ENDBRANCH   5  38
BRANCH   4  58
HETATM   58  C27 NIL A 600      21.523  -2.605   5.515  1.00 33.15    -0.049 C 
HETATM   59 1H27 NIL A 600      20.899  -2.260   6.339  1.00  0.00     0.033 H 
HETATM   60 2H27 NIL A 600      22.365  -3.175   5.909  1.00  0.00     0.033 H 
HETATM   61 3H27 NIL A 600      20.935  -3.240   4.853  1.00  0.00     0.033 H 
ENDBRANCH   4  58
TORSDOF 8
ENDMDL
MODEL 5
REMARK VINA RESULT:      -7.1     17.142     21.641
REMARK  8 active torsions:
REMARK  status: ('A' for Active; 'I' for Inactive)
REMARK       I    between atoms: C16_2  and  N14_3 
REMARK    1  A    between atoms: C16_2  and  C18_20 
REMARK    2  A    between atoms: C11_4  and  N14_3 
REMARK    3  A    between atoms: C8_6  and  N51_7 
REMARK    4  A    between atoms: C55_9  and  C58_10 
REMARK    5  A    between atoms: C2_16  and  C5_15 
REMARK    6  A    between atoms: C22_23  and  C27_24 
REMARK    7  A    between atoms: C21_25  and  N31_27 
REMARK       I    between atoms: C33_28  and  N31_27 
REMARK    8  A    between atoms: C35_32  and  C41_34 
ROOT
HETATM    1  C18 NIL A 600       7.178   5.469   0.653  1.00 31.05     0.034 A 
HETATM    2  C25 NIL A 600       6.538   5.492  -0.596  1.00 32.21    -0.067 A 
HETATM    3  C23 NIL A 600       5.955   6.659  -1.092  1.00 32.41    -0.074 A 
HETATM    4  C22 NIL A 600       5.909   7.818  -0.335  1.00 32.00    -0.035 A 
HETATM    5  C21 NIL A 600       6.450   7.773   0.949  1.00 30.01     0.056 A 
HETATM    6  C19 NIL A 600       7.055   6.600   1.419  1.00 27.29    -0.041 A 
HETATM    7  H25 NIL A 600       6.498   4.588  -1.186  1.00  0.00     0.085 H 
HETATM    8  H23 NIL A 600       5.529   6.657  -2.085  1.00  0.00     0.084 H 
HETATM    9  H19 NIL A 600       7.440   6.585   2.427  1.00  0.00     0.088 H 
ENDROOT
BRANCH   1  10
HETATM   10  C16 NIL A 600       7.707   4.257   1.308  1.00 32.06     0.256 C 
HETATM   11  N14 NIL A 600       6.797   3.425   1.836  1.00 33.50    -0.323 N 
HETATM   12  H14 NIL A 600       5.824   3.656   1.692  1.00  0.00     0.169 HD
HETATM   13  O17 NIL A 600       8.898   4.250   1.500  1.00 32.17    -0.267 OA
BRANCH  11  14
HETATM   14  C11 NIL A 600       7.069   2.276   2.567  1.00 35.33     0.037 A 
HETATM   15  C9  NIL A 600       7.983   1.306   2.084  1.00 34.24    -0.031 A 
HETATM   16  C8  NIL A 600       8.271   0.152   2.816  1.00 36.11     0.042 A 
HETATM   17  H9  NIL A 600       8.465   1.462   1.130  1.00  0.00     0.090 H 
HETATM   18  C6  NIL A 600       7.594  -0.092   4.007  1.00 33.87    -0.042 A 
HETATM   19  C5  NIL A 600       6.664   0.823   4.506  1.00 36.05     0.052 A 
HETATM   20  H6  NIL A 600       7.790  -1.001   4.554  1.00  0.00     0.088 H 
HETATM   21  C12 NIL A 600       6.352   1.990   3.749  1.00 39.32    -0.042 A 
HETATM   22  H12 NIL A 600       5.569   2.654   4.080  1.00  0.00     0.088 H 
BRANCH  16  23
HETATM   23  N51 NIL A 600       9.205  -0.793   2.366  1.00 40.77    -0.315 N 
HETATM   24  C52 NIL A 600       9.936  -1.620   3.123  1.00 44.44     0.070 A 
HETATM   25  N54 NIL A 600      10.687  -2.422   2.408  1.00 46.75    -0.247 NA
HETATM   26  H52 NIL A 600       9.910  -1.627   4.202  1.00  0.00     0.144 H 
HETATM   27  C55 NIL A 600      10.416  -2.170   1.108  1.00 45.13     0.048 A 
HETATM   28  C56 NIL A 600       9.521  -1.159   1.059  1.00 45.15     0.010 A 
HETATM   29  H56 NIL A 600       9.119  -0.712   0.161  1.00  0.00     0.115 H 
BRANCH  27  30
HETATM   30  C58 NIL A 600      11.071  -2.887  -0.047  1.00 44.78    -0.034 C 
HETATM   31 3H58 NIL A 600      11.576  -2.162  -0.686  1.00  0.00     0.035 H 
HETATM   32 1H58 NIL A 600      10.311  -3.413  -0.627  1.00  0.00     0.035 H 
HETATM   33 2H58 NIL A 600      11.797  -3.605   0.334  1.00  0.00     0.035 H 
ENDBRANCH  27  30
ENDBRANCH  16  23
BRANCH  19  34
HETATM   34  C2  NIL A 600       5.932   0.576   5.785  1.00 35.22     0.417 C 
HETATM   35  F3  NIL A 600       5.813   1.695   6.491  1.00 37.00    -0.166 F 
HETATM   36  F4  NIL A 600       6.562  -0.237   6.654  1.00 38.86    -0.166 F 
HETATM   37  F1  NIL A 600       4.746  -0.036   5.585  1.00 34.70    -0.166 F 
ENDBRANCH  19  34
ENDBRANCH  11  14
ENDBRANCH   1  10
BRANCH   5  38
HETATM   38  N31 NIL A 600       6.562   8.970   1.668  1.00 31.48    -0.188 N 
HETATM   39  C33 NIL A 600       5.794   9.153   2.819  1.00 33.06     0.727 A 
HETATM   40  N34 NIL A 600       5.960  10.440   3.223  1.00 33.13    -0.062 NA
HETATM   41  N40 NIL A 600       4.973   8.300   3.417  1.00 33.19    -0.075 NA
HETATM   42  C35 NIL A 600       5.258  10.852   4.285  1.00 35.47     0.089 A 
HETATM   43  C36 NIL A 600       4.423  10.016   4.939  1.00 31.87    -0.036 A 
HETATM   44  H36 NIL A 600       3.856  10.357   5.792  1.00  0.00     0.089 H 
HETATM   45  C38 NIL A 600       4.313   8.752   4.500  1.00 31.28     0.023 A 
HETATM   46  H38 NIL A 600       3.669   8.071   5.038  1.00  0.00     0.115 H 
HETATM   47  H31 NIL A 600       7.196   9.693   1.356  1.00  0.00     0.184 HD
BRANCH  42  48
HETATM   48  C41 NIL A 600       5.500  12.256   4.708  1.00 34.45     0.011 A 
HETATM   49  C42 NIL A 600       5.263  13.323   3.818  1.00 35.89     0.014 A 
HETATM   50  N44 NIL A 600       5.432  14.609   4.150  1.00 37.63    -0.272 NA
HETATM   51  H42 NIL A 600       4.929  13.091   2.818  1.00  0.00     0.116 H 
HETATM   52  C45 NIL A 600       5.892  14.876   5.385  1.00 38.74     0.002 A 
HETATM   53  C47 NIL A 600       6.139  13.900   6.347  1.00 36.18    -0.065 A 
HETATM   54  H45 NIL A 600       6.079  15.907   5.645  1.00  0.00     0.114 H 
HETATM   55  C49 NIL A 600       5.954  12.568   6.000  1.00 35.27    -0.068 A 
HETATM   56  H47 NIL A 600       6.467  14.172   7.340  1.00  0.00     0.085 H 
HETATM   57  H49 NIL A 600       6.157  11.781   6.713  1.00  0.00     0.085 H 
ENDBRANCH  42  48
ENDBRANCH   5  38
BRANCH   4  58
HETATM   58  C27 NIL A 600       5.261   9.080  -0.887  1.00 33.15    -0.049 C 
HETATM   59 1H27 NIL A 600       4.645   8.826  -1.750  1.00  0.00     0.033 H 
HETATM   60 2H27 NIL A 600       6.037   9.784  -1.188  1.00  0.00     0.033 H 
HETATM   61 3H27 NIL A 600       4.638   9.535  -0.117  1.00  0.00     0.033 H 
ENDBRANCH   4  58
TORSDOF 8
ENDMDL
MODEL 6
REMARK VINA RESULT:      -6.9      4.042     11.395
REMARK  8 active torsions:
REMARK  status: ('A' for Active; 'I' for Inactive)
REMARK       I    between atoms: C16_2  and  N14_3 
REMARK    1  A    between atoms: C16_2  and  C18_20 
REMARK    2  A    between atoms: C11_4  and  N14_3 
REMARK    3  A    between atoms: C8_6  and  N51_7 
REMARK    4  A    between atoms: C55_9  and  C58_10 
REMARK    5  A    between atoms: C2_16  and  C5_15 
REMARK    6  A    between atoms: C22_23  and  C27_24 
REMARK    7  A    between atoms: C21_25  and  N31_27 
REMARK       I    between atoms: C33_28  and  N31_27 
REMARK    8  A    between atoms: C35_32  and  C41_34 
ROOT
HETATM    1  C18 NIL A 600      25.611   1.917   3.123  1.00 31.05     0.034 A 
HETATM    2  C25 NIL A 600      26.977   2.237   3.115  1.00 32.21    -0.067 A 
HETATM    3  C23 NIL A 600      27.461   3.337   2.404  1.00 32.41    -0.074 A 
HETATM    4  C22 NIL A 600      26.625   4.104   1.610  1.00 32.00    -0.035 A 
HETATM    5  C21 NIL A 600      25.284   3.728   1.530  1.00 30.01     0.056 A 
HETATM    6  C19 NIL A 600      24.813   2.637   2.272  1.00 27.29    -0.041 A 
HETATM    7  H25 NIL A 600      27.668   1.621   3.671  1.00  0.00     0.085 H 
HETATM    8  H23 NIL A 600      28.508   3.593   2.473  1.00  0.00     0.084 H 
HETATM    9  H19 NIL A 600      23.777   2.351   2.169  1.00  0.00     0.088 H 
ENDROOT
BRANCH   1  10
HETATM   10  C16 NIL A 600      25.032   0.707   3.739  1.00 32.06     0.256 C 
HETATM   11  N14 NIL A 600      23.855   0.867   4.363  1.00 33.50    -0.323 N 
HETATM   12  H14 NIL A 600      23.427   1.780   4.310  1.00  0.00     0.169 HD
HETATM   13  O17 NIL A 600      25.773  -0.242   3.816  1.00 32.17    -0.267 OA
BRANCH  11  14
HETATM   14  C11 NIL A 600      23.172  -0.108   5.079  1.00 35.33     0.037 A 
HETATM   15  C9  NIL A 600      23.541  -0.427   6.409  1.00 34.24    -0.031 A 
HETATM   16  C8  NIL A 600      22.853  -1.400   7.140  1.00 36.11     0.042 A 
HETATM   17  H9  NIL A 600      24.372   0.089   6.866  1.00  0.00     0.090 H 
HETATM   18  C6  NIL A 600      21.834  -2.123   6.530  1.00 33.87    -0.042 A 
HETATM   19  C5  NIL A 600      21.455  -1.860   5.211  1.00 36.05     0.052 A 
HETATM   20  H6  NIL A 600      21.327  -2.898   7.083  1.00  0.00     0.088 H 
HETATM   21  C12 NIL A 600      22.171  -0.886   4.457  1.00 39.32    -0.042 A 
HETATM   22  H12 NIL A 600      21.947  -0.742   3.410  1.00  0.00     0.088 H 
BRANCH  16  23
HETATM   23  N51 NIL A 600      23.185  -1.693   8.471  1.00 40.77    -0.315 N 
HETATM   24  C52 NIL A 600      24.321  -1.372   9.103  1.00 44.44     0.070 A 
HETATM   25  N54 NIL A 600      24.317  -1.743  10.360  1.00 46.75    -0.247 NA
HETATM   26  H52 NIL A 600      25.148  -0.865   8.629  1.00  0.00     0.144 H 
HETATM   27  C55 NIL A 600      23.107  -2.288  10.612  1.00 45.13     0.048 A 
HETATM   28  C56 NIL A 600      22.402  -2.285   9.460  1.00 45.15     0.010 A 
HETATM   29  H56 NIL A 600      21.402  -2.674   9.327  1.00  0.00     0.115 H 
BRANCH  27  30
HETATM   30  C58 NIL A 600      22.690  -2.840  11.954  1.00 44.78    -0.034 C 
HETATM   31 3H58 NIL A 600      21.612  -2.730  12.073  1.00  0.00     0.035 H 
HETATM   32 1H58 NIL A 600      23.200  -2.292  12.747  1.00  0.00     0.035 H 
HETATM   33 2H58 NIL A 600      22.957  -3.895  12.012  1.00  0.00     0.035 H 
ENDBRANCH  27  30
ENDBRANCH  16  23
BRANCH  19  34
HETATM   34  C2  NIL A 600      20.360  -2.627   4.543  1.00 35.22     0.417 C 
HETATM   35  F3  NIL A 600      19.306  -1.853   4.314  1.00 37.00    -0.166 F 
HETATM   36  F4  NIL A 600      19.825  -3.617   5.285  1.00 38.86    -0.166 F 
HETATM   37  F1  NIL A 600      20.785  -3.263   3.432  1.00 34.70    -0.166 F 
ENDBRANCH  19  34
ENDBRANCH  11  14
ENDBRANCH   1  10
BRANCH   5  38
HETATM   38  N31 NIL A 600      24.391   4.579   0.868  1.00 31.48    -0.188 N 
HETATM   39  C33 NIL A 600      23.862   4.194  -0.365  1.00 33.06     0.727 A 
HETATM   40  N34 NIL A 600      23.171   5.252  -0.865  1.00 33.13    -0.062 NA
HETATM   41  N40 NIL A 600      24.027   3.053  -1.023  1.00 33.19    -0.075 NA
HETATM   42  C35 NIL A 600      22.627   5.120  -2.080  1.00 35.47     0.089 A 
HETATM   43  C36 NIL A 600      22.752   3.972  -2.781  1.00 31.87    -0.036 A 
HETATM   44  H36 NIL A 600      22.314   3.874  -3.763  1.00  0.00     0.089 H 
HETATM   45  C38 NIL A 600      23.434   2.957  -2.227  1.00 31.28     0.023 A 
HETATM   46  H38 NIL A 600      23.511   2.027  -2.771  1.00  0.00     0.115 H 
HETATM   47  H31 NIL A 600      24.130   5.463   1.281  1.00  0.00     0.184 HD
BRANCH  42  48
HETATM   48  C41 NIL A 600      21.853   6.291  -2.567  1.00 34.45     0.011 A 
HETATM   49  C42 NIL A 600      20.489   6.432  -2.244  1.00 35.89     0.014 A 
HETATM   50  N44 NIL A 600      19.747   7.479  -2.626  1.00 37.63    -0.272 NA
HETATM   51  H42 NIL A 600      20.017   5.656  -1.660  1.00  0.00     0.116 H 
HETATM   52  C45 NIL A 600      20.338   8.413  -3.390  1.00 38.74     0.002 A 
HETATM   53  C47 NIL A 600      21.685   8.381  -3.750  1.00 36.18    -0.065 A 
HETATM   54  H45 NIL A 600      19.736   9.236  -3.745  1.00  0.00     0.114 H 
HETATM   55  C49 NIL A 600      22.451   7.297  -3.344  1.00 35.27    -0.068 A 
HETATM   56  H47 NIL A 600      22.121   9.181  -4.330  1.00  0.00     0.085 H 
HETATM   57  H49 NIL A 600      23.493   7.226  -3.622  1.00  0.00     0.085 H 
ENDBRANCH  42  48
ENDBRANCH   5  38
BRANCH   4  58
HETATM   58  C27 NIL A 600      27.169   5.295   0.833  1.00 33.15    -0.049 C 
HETATM   59 1H27 NIL A 600      26.346   5.819   0.346  1.00  0.00     0.033 H 
HETATM   60 2H27 NIL A 600      27.874   4.944   0.079  1.00  0.00     0.033 H 
HETATM   61 3H27 NIL A 600      27.679   5.972   1.517  1.00  0.00     0.033 H 
ENDBRANCH   4  58
TORSDOF 8
ENDMDL
MODEL 7
REMARK VINA RESULT:      -6.9      3.245      9.924
REMARK  8 active torsions:
REMARK  status: ('A' for Active; 'I' for Inactive)
REMARK       I    between atoms: C16_2  and  N14_3 
REMARK    1  A    between atoms: C16_2  and  C18_20 
REMARK    2  A    between atoms: C11_4  and  N14_3 
REMARK    3  A    between atoms: C8_6  and  N51_7 
REMARK    4  A    between atoms: C55_9  and  C58_10 
REMARK    5  A    between atoms: C2_16  and  C5_15 
REMARK    6  A    between atoms: C22_23  and  C27_24 
REMARK    7  A    between atoms: C21_25  and  N31_27 
REMARK       I    between atoms: C33_28  and  N31_27 
REMARK    8  A    between atoms: C35_32  and  C41_34 
ROOT
HETATM    1  C18 NIL A 600      22.894  -0.865   5.684  1.00 31.05     0.034 A 
HETATM    2  C25 NIL A 600      22.059  -1.952   5.388  1.00 32.21    -0.067 A 
HETATM    3  C23 NIL A 600      21.387  -2.041   4.167  1.00 32.41    -0.074 A 
HETATM    4  C22 NIL A 600      21.451  -1.018   3.236  1.00 32.00    -0.035 A 
HETATM    5  C21 NIL A 600      22.195   0.113   3.568  1.00 30.01     0.056 A 
HETATM    6  C19 NIL A 600      22.884   0.172   4.787  1.00 27.29    -0.041 A 
HETATM    7  H25 NIL A 600      21.934  -2.738   6.118  1.00  0.00     0.085 H 
HETATM    8  H23 NIL A 600      20.804  -2.923   3.946  1.00  0.00     0.084 H 
HETATM    9  H19 NIL A 600      23.429   1.071   5.029  1.00  0.00     0.088 H 
ENDROOT
BRANCH   1  10
HETATM   10  C16 NIL A 600      23.539  -0.628   6.990  1.00 32.06     0.256 C 
HETATM   11  N14 NIL A 600      24.070  -1.704   7.591  1.00 33.50    -0.323 N 
HETATM   12  H14 NIL A 600      24.045  -2.575   7.081  1.00  0.00     0.169 HD
HETATM   13  O17 NIL A 600      23.327   0.452   7.485  1.00 32.17    -0.267 OA
BRANCH  11  14
HETATM   14  C11 NIL A 600      24.649  -1.731   8.853  1.00 35.33     0.037 A 
HETATM   15  C9  NIL A 600      26.037  -1.500   9.022  1.00 34.24    -0.031 A 
HETATM   16  C8  NIL A 600      26.627  -1.515  10.289  1.00 36.11     0.042 A 
HETATM   17  H9  NIL A 600      26.652  -1.312   8.154  1.00  0.00     0.090 H 
HETATM   18  C6  NIL A 600      25.855  -1.835  11.401  1.00 33.87    -0.042 A 
HETATM   19  C5  NIL A 600      24.488  -2.097  11.277  1.00 36.05     0.052 A 
HETATM   20  H6  NIL A 600      26.318  -1.881  12.374  1.00  0.00     0.088 H 
HETATM   21  C12 NIL A 600      23.890  -2.105   9.984  1.00 39.32    -0.042 A 
HETATM   22  H12 NIL A 600      22.858  -2.397   9.868  1.00  0.00     0.088 H 
BRANCH  16  23
HETATM   23  N51 NIL A 600      27.992  -1.247  10.469  1.00 40.77    -0.315 N 
HETATM   24  C52 NIL A 600      29.017  -1.891   9.899  1.00 44.44     0.070 A 
HETATM   25  N54 NIL A 600      30.178  -1.378  10.227  1.00 46.75    -0.247 NA
HETATM   26  H52 NIL A 600      28.901  -2.740   9.241  1.00  0.00     0.144 H 
HETATM   27  C55 NIL A 600      29.932  -0.304  11.010  1.00 45.13     0.048 A 
HETATM   28  C56 NIL A 600      28.596  -0.216  11.186  1.00 45.15     0.010 A 
HETATM   29  H56 NIL A 600      28.083   0.526  11.782  1.00  0.00     0.115 H 
BRANCH  27  30
HETATM   30  C58 NIL A 600      31.007   0.576  11.601  1.00 44.78    -0.034 C 
HETATM   31 3H58 NIL A 600      30.552   1.477  12.014  1.00  0.00     0.035 H 
HETATM   32 1H58 NIL A 600      31.719   0.853  10.823  1.00  0.00     0.035 H 
HETATM   33 2H58 NIL A 600      31.526   0.034  12.391  1.00  0.00     0.035 H 
ENDBRANCH  27  30
ENDBRANCH  16  23
BRANCH  19  34
HETATM   34  C2  NIL A 600      23.647  -2.439  12.463  1.00 35.22     0.417 C 
HETATM   35  F3  NIL A 600      24.001  -3.612  12.977  1.00 37.00    -0.166 F 
HETATM   36  F4  NIL A 600      22.340  -2.634  12.198  1.00 38.86    -0.166 F 
HETATM   37  F1  NIL A 600      23.637  -1.455  13.385  1.00 34.70    -0.166 F 
ENDBRANCH  19  34
ENDBRANCH  11  14
ENDBRANCH   1  10
BRANCH   5  38
HETATM   38  N31 NIL A 600      22.408   1.085   2.582  1.00 31.48    -0.188 N 
HETATM   39  C33 NIL A 600      23.643   1.733   2.512  1.00 33.06     0.727 A 
HETATM   40  N34 NIL A 600      23.532   2.732   1.597  1.00 33.13    -0.062 NA
HETATM   41  N40 NIL A 600      24.738   1.519   3.230  1.00 33.19    -0.075 NA
HETATM   42  C35 NIL A 600      24.592   3.527   1.414  1.00 35.47     0.089 A 
HETATM   43  C36 NIL A 600      25.735   3.338   2.109  1.00 31.87    -0.036 A 
HETATM   44  H36 NIL A 600      26.586   3.986   1.959  1.00  0.00     0.089 H 
HETATM   45  C38 NIL A 600      25.788   2.326   2.988  1.00 31.28     0.023 A 
HETATM   46  H38 NIL A 600      26.711   2.152   3.523  1.00  0.00     0.115 H 
HETATM   47  H31 NIL A 600      21.674   1.313   1.926  1.00  0.00     0.184 HD
BRANCH  42  48
HETATM   48  C41 NIL A 600      24.432   4.581   0.379  1.00 34.45     0.011 A 
HETATM   49  C42 NIL A 600      23.505   4.420  -0.669  1.00 35.89     0.014 A 
HETATM   50  N44 NIL A 600      23.293   5.346  -1.612  1.00 37.63    -0.272 NA
HETATM   51  H42 NIL A 600      22.936   3.503  -0.714  1.00  0.00     0.116 H 
HETATM   52  C45 NIL A 600      24.041   6.461  -1.567  1.00 38.74     0.002 A 
HETATM   53  C47 NIL A 600      24.972   6.729  -0.565  1.00 36.18    -0.065 A 
HETATM   54  H45 NIL A 600      23.914   7.191  -2.352  1.00  0.00     0.114 H 
HETATM   55  C49 NIL A 600      25.181   5.768   0.416  1.00 35.27    -0.068 A 
HETATM   56  H47 NIL A 600      25.517   7.662  -0.550  1.00  0.00     0.085 H 
HETATM   57  H49 NIL A 600      25.910   5.931   1.197  1.00  0.00     0.085 H 
ENDBRANCH  42  48
ENDBRANCH   5  38
BRANCH   4  58
HETATM   58  C27 NIL A 600      20.705  -1.125   1.913  1.00 33.15    -0.049 C 
HETATM   59 1H27 NIL A 600      19.726  -0.653   2.007  1.00  0.00     0.033 H 
HETATM   60 2H27 NIL A 600      20.578  -2.176   1.652  1.00  0.00     0.033 H 
HETATM   61 3H27 NIL A 600      21.276  -0.625   1.132  1.00  0.00     0.033 H 
ENDBRANCH   4  58
TORSDOF 8
ENDMDL
MODEL 8
REMARK VINA RESULT:      -6.8      9.009     14.777
REMARK  8 active torsions:
REMARK  status: ('A' for Active; 'I' for Inactive)
REMARK       I    between atoms: C16_2  and  N14_3 
REMARK    1  A    between atoms: C16_2  and  C18_20 
REMARK    2  A    between atoms: C11_4  and  N14_3 
REMARK    3  A    between atoms: C8_6  and  N51_7 
REMARK    4  A    between atoms: C55_9  and  C58_10 
REMARK    5  A    between atoms: C2_16  and  C5_15 
REMARK    6  A    between atoms: C22_23  and  C27_24 
REMARK    7  A    between atoms: C21_25  and  N31_27 
REMARK       I    between atoms: C33_28  and  N31_27 
REMARK    8  A    between atoms: C35_32  and  C41_34 
ROOT
HETATM    1  C18 NIL A 600      21.194   6.499  -2.962  1.00 31.05     0.034 A 
HETATM    2  C25 NIL A 600      20.461   7.676  -3.176  1.00 32.21    -0.067 A 
HETATM    3  C23 NIL A 600      19.074   7.650  -3.331  1.00 32.41    -0.074 A 
HETATM    4  C22 NIL A 600      18.377   6.453  -3.364  1.00 32.00    -0.035 A 
HETATM    5  C21 NIL A 600      19.112   5.274  -3.256  1.00 30.01     0.056 A 
HETATM    6  C19 NIL A 600      20.501   5.322  -3.075  1.00 27.29    -0.041 A 
HETATM    7  H25 NIL A 600      20.980   8.622  -3.222  1.00  0.00     0.085 H 
HETATM    8  H23 NIL A 600      18.534   8.581  -3.429  1.00  0.00     0.084 H 
HETATM    9  H19 NIL A 600      21.048   4.393  -3.023  1.00  0.00     0.088 H 
ENDROOT
BRANCH   1  10
HETATM   10  C16 NIL A 600      22.667   6.420  -2.915  1.00 32.06     0.256 C 
HETATM   11  N14 NIL A 600      23.206   6.126  -1.721  1.00 33.50    -0.323 N 
HETATM   12  H14 NIL A 600      22.567   5.921  -0.967  1.00  0.00     0.169 HD
HETATM   13  O17 NIL A 600      23.241   6.845  -3.887  1.00 32.17    -0.267 OA
BRANCH  11  14
HETATM   14  C11 NIL A 600      24.562   6.082  -1.427  1.00 35.33     0.037 A 
HETATM   15  C9  NIL A 600      25.014   5.775  -0.119  1.00 34.24    -0.031 A 
HETATM   16  C8  NIL A 600      26.376   5.718   0.184  1.00 36.11     0.042 A 
HETATM   17  H9  NIL A 600      24.290   5.585   0.660  1.00  0.00     0.090 H 
HETATM   18  C6  NIL A 600      27.310   6.040  -0.795  1.00 33.87    -0.042 A 
HETATM   19  C5  NIL A 600      26.909   6.375  -2.090  1.00 36.05     0.052 A 
HETATM   20  H6  NIL A 600      28.362   6.030  -0.551  1.00  0.00     0.088 H 
HETATM   21  C12 NIL A 600      25.520   6.456  -2.395  1.00 39.32    -0.042 A 
HETATM   22  H12 NIL A 600      25.199   6.804  -3.365  1.00  0.00     0.088 H 
BRANCH  16  23
HETATM   23  N51 NIL A 600      26.833   5.375   1.466  1.00 40.77    -0.315 N 
HETATM   24  C52 NIL A 600      26.080   5.040   2.521  1.00 44.44     0.070 A 
HETATM   25  N54 NIL A 600      26.800   4.725   3.570  1.00 46.75    -0.247 NA
HETATM   26  H52 NIL A 600      25.000   5.031   2.509  1.00  0.00     0.144 H 
HETATM   27  C55 NIL A 600      28.097   4.793   3.200  1.00 45.13     0.048 A 
HETATM   28  C56 NIL A 600      28.141   5.209   1.915  1.00 45.15     0.010 A 
HETATM   29  H56 NIL A 600      29.036   5.382   1.335  1.00  0.00     0.115 H 
BRANCH  27  30
HETATM   30  C58 NIL A 600      29.257   4.498   4.120  1.00 44.78    -0.034 C 
HETATM   31 3H58 NIL A 600      29.239   3.444   4.401  1.00  0.00     0.035 H 
HETATM   32 1H58 NIL A 600      29.177   5.114   5.016  1.00  0.00     0.035 H 
HETATM   33 2H58 NIL A 600      30.193   4.722   3.608  1.00  0.00     0.035 H 
ENDBRANCH  27  30
ENDBRANCH  16  23
BRANCH  19  34
HETATM   34  C2  NIL A 600      27.902   6.720  -3.152  1.00 35.22     0.417 C 
HETATM   35  F3  NIL A 600      28.681   5.681  -3.434  1.00 37.00    -0.166 F 
HETATM   36  F4  NIL A 600      28.804   7.659  -2.805  1.00 38.86    -0.166 F 
HETATM   37  F1  NIL A 600      27.316   7.238  -4.251  1.00 34.70    -0.166 F 
ENDBRANCH  19  34
ENDBRANCH  11  14
ENDBRANCH   1  10
BRANCH   5  38
HETATM   38  N31 NIL A 600      18.418   4.064  -3.123  1.00 31.48    -0.188 N 
HETATM   39  C33 NIL A 600      18.324   3.462  -1.867  1.00 33.06     0.727 A 
HETATM   40  N34 NIL A 600      17.759   2.238  -2.039  1.00 33.13    -0.062 NA
HETATM   41  N40 NIL A 600      18.755   3.908  -0.694  1.00 33.19    -0.075 NA
HETATM   42  C35 NIL A 600      17.629   1.456  -0.961  1.00 35.47     0.089 A 
HETATM   43  C36 NIL A 600      18.037   1.873   0.257  1.00 31.87    -0.036 A 
HETATM   44  H36 NIL A 600      17.933   1.236   1.122  1.00  0.00     0.089 H 
HETATM   45  C38 NIL A 600      18.574   3.099   0.366  1.00 31.28     0.023 A 
HETATM   46  H38 NIL A 600      18.872   3.449   1.344  1.00  0.00     0.115 H 
HETATM   47  H31 NIL A 600      17.989   3.633  -3.929  1.00  0.00     0.184 HD
BRANCH  42  48
HETATM   48  C41 NIL A 600      16.975   0.143  -1.196  1.00 34.45     0.011 A 
HETATM   49  C42 NIL A 600      17.178  -0.927  -0.303  1.00 35.89     0.014 A 
HETATM   50  N44 NIL A 600      16.592  -2.123  -0.443  1.00 37.63    -0.272 NA
HETATM   51  H42 NIL A 600      17.840  -0.776   0.537  1.00  0.00     0.116 H 
HETATM   52  C45 NIL A 600      15.807  -2.308  -1.518  1.00 38.74     0.002 A 
HETATM   53  C47 NIL A 600      15.524  -1.311  -2.451  1.00 36.18    -0.065 A 
HETATM   54  H45 NIL A 600      15.370  -3.284  -1.668  1.00  0.00     0.114 H 
HETATM   55  C49 NIL A 600      16.128  -0.071  -2.296  1.00 35.27    -0.068 A 
HETATM   56  H47 NIL A 600      14.851  -1.500  -3.275  1.00  0.00     0.085 H 
HETATM   57  H49 NIL A 600      15.950   0.720  -3.011  1.00  0.00     0.085 H 
ENDBRANCH  42  48
ENDBRANCH   5  38
BRANCH   4  58
HETATM   58  C27 NIL A 600      16.865   6.440  -3.543  1.00 33.15    -0.049 C 
HETATM   59 1H27 NIL A 600      16.412   7.160  -2.861  1.00  0.00     0.033 H 
HETATM   60 2H27 NIL A 600      16.483   5.443  -3.325  1.00  0.00     0.033 H 
HETATM   61 3H27 NIL A 600      16.619   6.706  -4.570  1.00  0.00     0.033 H 
ENDBRANCH   4  58
TORSDOF 8
ENDMDL
MODEL 9
REMARK VINA RESULT:      -6.8     17.814     22.325
REMARK  8 active torsions:
REMARK  status: ('A' for Active; 'I' for Inactive)
REMARK       I    between atoms: C16_2  and  N14_3 
REMARK    1  A    between atoms: C16_2  and  C18_20 
REMARK    2  A    between atoms: C11_4  and  N14_3 
REMARK    3  A    between atoms: C8_6  and  N51_7 
REMARK    4  A    between atoms: C55_9  and  C58_10 
REMARK    5  A    between atoms: C2_16  and  C5_15 
REMARK    6  A    between atoms: C22_23  and  C27_24 
REMARK    7  A    between atoms: C21_25  and  N31_27 
REMARK       I    between atoms: C33_28  and  N31_27 
REMARK    8  A    between atoms: C35_32  and  C41_34 
ROOT
HETATM    1  C18 NIL A 600       3.930   6.648   0.951  1.00 31.05     0.034 A 
HETATM    2  C25 NIL A 600       3.363   6.314  -0.288  1.00 32.21    -0.067 A 
HETATM    3  C23 NIL A 600       3.528   5.044  -0.843  1.00 32.41    -0.074 A 
HETATM    4  C22 NIL A 600       4.327   4.091  -0.233  1.00 32.00    -0.035 A 
HETATM    5  C21 NIL A 600       4.978   4.452   0.946  1.00 30.01     0.056 A 
HETATM    6  C19 NIL A 600       4.780   5.723   1.501  1.00 27.29    -0.041 A 
HETATM    7  H25 NIL A 600       2.787   7.054  -0.822  1.00  0.00     0.085 H 
HETATM    8  H23 NIL A 600       3.024   4.800  -1.766  1.00  0.00     0.084 H 
HETATM    9  H19 NIL A 600       5.318   5.985   2.399  1.00  0.00     0.088 H 
ENDROOT
BRANCH   1  10
HETATM   10  C16 NIL A 600       3.914   7.997   1.550  1.00 32.06     0.256 C 
HETATM   11  N14 NIL A 600       5.104   8.492   1.926  1.00 33.50    -0.323 N 
HETATM   12  H14 NIL A 600       5.920   7.936   1.715  1.00  0.00     0.169 HD
HETATM   13  O17 NIL A 600       2.824   8.421   1.846  1.00 32.17    -0.267 OA
BRANCH  11  14
HETATM   14  C11 NIL A 600       5.316   9.698   2.581  1.00 35.33     0.037 A 
HETATM   15  C9  NIL A 600       5.482  10.902   1.854  1.00 34.24    -0.031 A 
HETATM   16  C8  NIL A 600       5.685  12.122   2.505  1.00 36.11     0.042 A 
HETATM   17  H9  NIL A 600       5.452  10.877   0.774  1.00  0.00     0.090 H 
HETATM   18  C6  NIL A 600       5.803  12.148   3.890  1.00 33.87    -0.042 A 
HETATM   19  C5  NIL A 600       5.674  10.980   4.646  1.00 36.05     0.052 A 
HETATM   20  H6  NIL A 600       5.996  13.085   4.390  1.00  0.00     0.088 H 
HETATM   21  C12 NIL A 600       5.490   9.733   3.982  1.00 39.32    -0.042 A 
HETATM   22  H12 NIL A 600       5.482   8.815   4.551  1.00  0.00     0.088 H 
BRANCH  16  23
HETATM   23  N51 NIL A 600       5.809  13.325   1.794  1.00 40.77    -0.315 N 
HETATM   24  C52 NIL A 600       5.955  13.462   0.471  1.00 44.44     0.070 A 
HETATM   25  N54 NIL A 600       5.997  14.718   0.098  1.00 46.75    -0.247 NA
HETATM   26  H52 NIL A 600       6.032  12.631  -0.214  1.00  0.00     0.144 H 
HETATM   27  C55 NIL A 600       5.814  15.469   1.206  1.00 45.13     0.048 A 
HETATM   28  C56 NIL A 600       5.714  14.634   2.263  1.00 45.15     0.010 A 
HETATM   29  H56 NIL A 600       5.584  14.929   3.294  1.00  0.00     0.115 H 
BRANCH  27  30
HETATM   30  C58 NIL A 600       5.788  16.979   1.211  1.00 44.78    -0.034 C 
HETATM   31 3H58 NIL A 600       5.576  17.342   0.205  1.00  0.00     0.035 H 
HETATM   32 1H58 NIL A 600       6.757  17.358   1.536  1.00  0.00     0.035 H 
HETATM   33 2H58 NIL A 600       5.014  17.327   1.894  1.00  0.00     0.035 H 
ENDBRANCH  27  30
ENDBRANCH  16  23
BRANCH  19  34
HETATM   34  C2  NIL A 600       5.795  10.994   6.135  1.00 35.22     0.417 C 
HETATM   35  F3  NIL A 600       4.701  10.506   6.708  1.00 37.00    -0.166 F 
HETATM   36  F4  NIL A 600       5.877  12.220   6.688  1.00 38.86    -0.166 F 
HETATM   37  F1  NIL A 600       6.919  10.381   6.562  1.00 34.70    -0.166 F 
ENDBRANCH  19  34
ENDBRANCH  11  14
ENDBRANCH   1  10
BRANCH   5  38
HETATM   38  N31 NIL A 600       5.658   3.460   1.664  1.00 31.48    -0.188 N 
HETATM   39  C33 NIL A 600       7.053   3.459   1.681  1.00 33.06     0.727 A 
HETATM   40  N34 NIL A 600       7.457   2.315   2.293  1.00 33.13    -0.062 NA
HETATM   41  N40 NIL A 600       7.894   4.336   1.148  1.00 33.19    -0.075 NA
HETATM   42  C35 NIL A 600       8.772   2.078   2.364  1.00 35.47     0.089 A 
HETATM   43  C36 NIL A 600       9.667   2.951   1.853  1.00 31.87    -0.036 A 
HETATM   44  H36 NIL A 600      10.727   2.752   1.910  1.00  0.00     0.089 H 
HETATM   45  C38 NIL A 600       9.207   4.070   1.273  1.00 31.28     0.023 A 
HETATM   46  H38 NIL A 600       9.921   4.786   0.890  1.00  0.00     0.115 H 
HETATM   47  H31 NIL A 600       5.141   2.752   2.167  1.00  0.00     0.184 HD
BRANCH  42  48
HETATM   48  C41 NIL A 600       9.162   0.832   3.074  1.00 34.45     0.011 A 
HETATM   49  C42 NIL A 600      10.069   0.877   4.151  1.00 35.89     0.014 A 
HETATM   50  N44 NIL A 600      10.435  -0.205   4.850  1.00 37.63    -0.272 NA
HETATM   51  H42 NIL A 600      10.491   1.832   4.427  1.00  0.00     0.116 H 
HETATM   52  C45 NIL A 600       9.935  -1.392   4.464  1.00 38.74     0.002 A 
HETATM   53  C47 NIL A 600       9.017  -1.545   3.426  1.00 36.18    -0.065 A 
HETATM   54  H45 NIL A 600      10.263  -2.277   4.988  1.00  0.00     0.114 H 
HETATM   55  C49 NIL A 600       8.635  -0.417   2.711  1.00 35.27    -0.068 A 
HETATM   56  H47 NIL A 600       8.612  -2.517   3.184  1.00  0.00     0.085 H 
HETATM   57  H49 NIL A 600       7.942  -0.500   1.886  1.00  0.00     0.085 H 
ENDBRANCH  42  48
ENDBRANCH   5  38
BRANCH   4  58
HETATM   58  C27 NIL A 600       4.505   2.713  -0.855  1.00 33.15    -0.049 C 
HETATM   59 1H27 NIL A 600       4.803   2.820  -1.898  1.00  0.00     0.033 H 
HETATM   60 2H27 NIL A 600       3.563   2.167  -0.800  1.00  0.00     0.033 H 
HETATM   61 3H27 NIL A 600       5.273   2.165  -0.311  1.00  0.00     0.033 H 
ENDBRANCH   4  58
TORSDOF 8
ENDMDL
