REMARK  8 active torsions:
REMARK  status: ('A' for Active; 'I' for Inactive)
REMARK       I    between atoms: C16_2  and  N14_3 
REMARK    1  A    between atoms: C16_2  and  C18_20 
REMARK    2  A    between atoms: C11_4  and  N14_3 
REMARK    3  A    between atoms: C8_6  and  N51_7 
REMARK    4  A    between atoms: C55_9  and  C58_10 
REMARK    5  A    between atoms: C2_16  and  C5_15 
REMARK    6  A    between atoms: C22_23  and  C27_24 
REMARK    7  A    between atoms: C21_25  and  N31_27 
REMARK       I    between atoms: C33_28  and  N31_27 
REMARK    8  A    between atoms: C35_32  and  C41_34 
ROOT
HETATM    1  C18 NIL A 600     -14.663   2.976  38.612  1.00 31.05     0.034 A 
HETATM    2  C25 NIL A 600     -13.941   2.723  39.788  1.00 32.21    -0.067 A 
HETATM    3  C23 NIL A 600     -12.772   1.960  39.773  1.00 32.41    -0.074 A 
HETATM    4  C22 NIL A 600     -12.326   1.352  38.611  1.00 32.00    -0.035 A 
HETATM    5  C21 NIL A 600     -13.096   1.513  37.460  1.00 30.01     0.056 A 
HETATM    6  C19 NIL A 600     -14.252   2.304  37.490  1.00 27.29    -0.041 A 
HETATM    7  H25 NIL A 600     -14.296   3.128  40.724  1.00  0.00     0.085 H 
HETATM    8  H23 NIL A 600     -12.206   1.840  40.685  1.00  0.00     0.084 H 
HETATM    9  H19 NIL A 600     -14.844   2.388  36.591  1.00  0.00     0.088 H 
ENDROOT
BRANCH   1  10
HETATM   10  C16 NIL A 600     -15.969   3.661  38.555  1.00 32.06     0.256 C 
HETATM   11  N14 NIL A 600     -16.482   4.055  39.731  1.00 33.50    -0.323 N 
HETATM   12  H14 NIL A 600     -15.912   3.912  40.552  1.00  0.00     0.169 HD
HETATM   13  O17 NIL A 600     -16.543   3.596  37.496  1.00 32.17    -0.267 OA
BRANCH  11  14
HETATM   14  C11 NIL A 600     -17.727   4.640  39.923  1.00 35.33     0.037 A 
HETATM   15  C9  NIL A 600     -17.973   5.478  41.039  1.00 34.24    -0.031 A 
HETATM   16  C8  NIL A 600     -19.219   6.079  41.235  1.00 36.11     0.042 A 
HETATM   17  H9  NIL A 600     -17.182   5.654  41.753  1.00  0.00     0.090 H 
HETATM   18  C6  NIL A 600     -20.263   5.793  40.362  1.00 33.87    -0.042 A 
HETATM   19  C5  NIL A 600     -20.073   4.950  39.264  1.00 36.05     0.052 A 
HETATM   20  H6  NIL A 600     -21.235   6.229  40.534  1.00  0.00     0.088 H 
HETATM   21  C12 NIL A 600     -18.810   4.318  39.076  1.00 39.32    -0.042 A 
HETATM   22  H12 NIL A 600     -18.681   3.594  38.286  1.00  0.00     0.088 H 
BRANCH  16  23
HETATM   23  N51 NIL A 600     -19.459   6.943  42.314  1.00 40.77    -0.315 N 
HETATM   24  C52 NIL A 600     -20.476   7.804  42.440  1.00 44.44     0.070 A 
HETATM   25  N54 NIL A 600     -20.455   8.441  43.585  1.00 46.75    -0.247 NA
HETATM   26  H52 NIL A 600     -21.230   7.957  41.682  1.00  0.00     0.144 H 
HETATM   27  C55 NIL A 600     -19.413   7.954  44.294  1.00 45.13     0.048 A 
HETATM   28  C56 NIL A 600     -18.776   7.045  43.524  1.00 45.15     0.010 A 
HETATM   29  H56 NIL A 600     -17.889   6.492  43.799  1.00  0.00     0.115 H 
BRANCH  27  30
HETATM   30  C58 NIL A 600     -19.040   8.421  45.680  1.00 44.78    -0.034 C 
HETATM   31 3H58 NIL A 600     -19.043   7.571  46.363  1.00  0.00     0.035 H 
HETATM   32 1H58 NIL A 600     -19.763   9.163  46.021  1.00  0.00     0.035 H 
HETATM   33 2H58 NIL A 600     -18.046   8.867  45.658  1.00  0.00     0.035 H 
ENDBRANCH  27  30
ENDBRANCH  16  23
BRANCH  19  34
HETATM   34  C2  NIL A 600     -21.185   4.636  38.317  1.00 35.22     0.417 C 
HETATM   35  F3  NIL A 600     -22.367   4.886  38.869  1.00 37.00    -0.166 F 
HETATM   36  F4  NIL A 600     -21.301   3.335  37.986  1.00 38.86    -0.166 F 
HETATM   37  F1  NIL A 600     -21.032   5.251  37.126  1.00 34.70    -0.166 F 
ENDBRANCH  19  34
ENDBRANCH  11  14
ENDBRANCH   1  10
BRANCH   5  38
HETATM   38  N31 NIL A 600     -12.583   1.047  36.243  1.00 31.48    -0.188 N 
HETATM   39  C33 NIL A 600     -11.867   1.919  35.421  1.00 33.06     0.727 A 
HETATM   40  N34 NIL A 600     -11.633   1.278  34.246  1.00 33.13    -0.062 NA
HETATM   41  N40 NIL A 600     -11.515   3.178  35.648  1.00 33.19    -0.075 NA
HETATM   42  C35 NIL A 600     -11.007   1.960  33.280  1.00 35.47     0.089 A 
HETATM   43  C36 NIL A 600     -10.613   3.238  33.470  1.00 31.87    -0.036 A 
HETATM   44  H36 NIL A 600     -10.112   3.784  32.685  1.00  0.00     0.089 H 
HETATM   45  C38 NIL A 600     -10.860   3.812  34.658  1.00 31.28     0.023 A 
HETATM   46  H38 NIL A 600     -10.519   4.824  34.825  1.00  0.00     0.115 H 
HETATM   47  H31 NIL A 600     -12.729   0.087  35.964  1.00  0.00     0.184 HD
BRANCH  42  48
HETATM   48  C41 NIL A 600     -10.744   1.204  32.028  1.00 34.45     0.011 A 
HETATM   49  C42 NIL A 600     -11.198  -0.122  31.884  1.00 35.89     0.014 A 
HETATM   50  N44 NIL A 600     -11.020  -0.843  30.770  1.00 37.63    -0.272 NA
HETATM   51  H42 NIL A 600     -11.715  -0.580  32.714  1.00  0.00     0.116 H 
HETATM   52  C45 NIL A 600     -10.335  -0.273  29.764  1.00 38.74     0.002 A 
HETATM   53  C47 NIL A 600      -9.860   1.037  29.795  1.00 36.18    -0.065 A 
HETATM   54  H45 NIL A 600     -10.142  -0.864  28.881  1.00  0.00     0.114 H 
HETATM   55  C49 NIL A 600     -10.055   1.783  30.950  1.00 35.27    -0.068 A 
HETATM   56  H47 NIL A 600      -9.353   1.462  28.941  1.00  0.00     0.085 H 
HETATM   57  H49 NIL A 600      -9.682   2.795  31.019  1.00  0.00     0.085 H 
ENDBRANCH  42  48
ENDBRANCH   5  38
BRANCH   4  58
HETATM   58  C27 NIL A 600     -11.054   0.515  38.612  1.00 33.15    -0.049 C 
HETATM   59 1H27 NIL A 600     -10.657   0.457  39.626  1.00  0.00     0.033 H 
HETATM   60 2H27 NIL A 600     -10.315   0.978  37.958  1.00  0.00     0.033 H 
HETATM   61 3H27 NIL A 600     -11.279  -0.488  38.251  1.00  0.00     0.033 H 
ENDBRANCH   4  58
TORSDOF 8
