MODEL 1
REMARK VINA RESULT:      -0.2      0.000      0.000
REMARK  8 active torsions:
REMARK  status: ('A' for Active; 'I' for Inactive)
REMARK       I    between atoms: C16_2  and  N14_3 
REMARK    1  A    between atoms: C16_2  and  C18_20 
REMARK    2  A    between atoms: C11_4  and  N14_3 
REMARK    3  A    between atoms: C8_6  and  N51_7 
REMARK    4  A    between atoms: C55_9  and  C58_10 
REMARK    5  A    between atoms: C2_16  and  C5_15 
REMARK    6  A    between atoms: C22_23  and  C27_24 
REMARK    7  A    between atoms: C21_25  and  N31_27 
REMARK       I    between atoms: C33_28  and  N31_27 
REMARK    8  A    between atoms: C35_32  and  C41_34 
ROOT
HETATM    1  C18 NIL A 600      27.677   6.399  48.478  1.00 31.05     0.034 A 
HETATM    2  C25 NIL A 600      28.701   6.577  47.535  1.00 32.21    -0.067 A 
HETATM    3  C23 NIL A 600      28.508   7.354  46.392  1.00 32.41    -0.074 A 
HETATM    4  C22 NIL A 600      27.273   7.909  46.100  1.00 32.00    -0.035 A 
HETATM    5  C21 NIL A 600      26.223   7.649  46.980  1.00 30.01     0.056 A 
HETATM    6  C19 NIL A 600      26.443   6.888  48.136  1.00 27.29    -0.041 A 
HETATM    7  H25 NIL A 600      29.658   6.105  47.698  1.00  0.00     0.085 H 
HETATM    8  H23 NIL A 600      29.337   7.524  45.721  1.00  0.00     0.084 H 
HETATM    9  H19 NIL A 600      25.606   6.679  48.784  1.00  0.00     0.088 H 
ENDROOT
BRANCH   1  10
HETATM   10  C16 NIL A 600      27.752   5.497  49.644  1.00 32.06     0.256 C 
HETATM   11  N14 NIL A 600      26.602   4.914  50.015  1.00 33.50    -0.323 N 
HETATM   12  H14 NIL A 600      25.792   5.084  49.436  1.00  0.00     0.169 HD
HETATM   13  O17 NIL A 600      28.778   5.551  50.277  1.00 32.17    -0.267 OA
BRANCH  11  14
HETATM   14  C11 NIL A 600      26.421   4.099  51.125  1.00 35.33     0.037 A 
HETATM   15  C9  NIL A 600      26.673   2.706  51.054  1.00 34.24    -0.031 A 
HETATM   16  C8  NIL A 600      26.504   1.880  52.168  1.00 36.11     0.042 A 
HETATM   17  H9  NIL A 600      26.999   2.274  50.119  1.00  0.00     0.090 H 
HETATM   18  C6  NIL A 600      26.008   2.417  53.351  1.00 33.87    -0.042 A 
HETATM   19  C5  NIL A 600      25.720   3.780  53.458  1.00 36.05     0.052 A 
HETATM   20  H6  NIL A 600      25.844   1.772  54.201  1.00  0.00     0.088 H 
HETATM   21  C12 NIL A 600      25.870   4.619  52.316  1.00 39.32    -0.042 A 
HETATM   22  H12 NIL A 600      25.562   5.653  52.362  1.00  0.00     0.088 H 
BRANCH  16  23
HETATM   23  N51 NIL A 600      26.790   0.507  52.118  1.00 40.77    -0.315 N 
HETATM   24  C52 NIL A 600      27.279  -0.172  51.073  1.00 44.44     0.070 A 
HETATM   25  N54 NIL A 600      27.485  -1.436  51.348  1.00 46.75    -0.247 NA
HETATM   26  H52 NIL A 600      27.482   0.274  50.110  1.00  0.00     0.144 H 
HETATM   27  C55 NIL A 600      27.178  -1.616  52.652  1.00 45.13     0.048 A 
HETATM   28  C56 NIL A 600      26.731  -0.439  53.139  1.00 45.15     0.010 A 
HETATM   29  H56 NIL A 600      26.386  -0.260  54.148  1.00  0.00     0.115 H 
BRANCH  27  30
HETATM   30  C58 NIL A 600      27.283  -2.939  53.371  1.00 44.78    -0.034 C 
HETATM   31 3H58 NIL A 600      28.297  -3.067  53.750  1.00  0.00     0.035 H 
HETATM   32 1H58 NIL A 600      27.049  -3.749  52.679  1.00  0.00     0.035 H 
HETATM   33 2H58 NIL A 600      26.578  -2.958  54.202  1.00  0.00     0.035 H 
ENDBRANCH  27  30
ENDBRANCH  16  23
BRANCH  19  34
HETATM   34  C2  NIL A 600      25.190   4.371  54.723  1.00 35.22     0.417 C 
HETATM   35  F3  NIL A 600      25.602   5.624  54.875  1.00 37.00    -0.166 F 
HETATM   36  F4  NIL A 600      25.638   3.791  55.854  1.00 38.86    -0.166 F 
HETATM   37  F1  NIL A 600      23.849   4.254  54.820  1.00 34.70    -0.166 F 
ENDBRANCH  19  34
ENDBRANCH  11  14
ENDBRANCH   1  10
BRANCH   5  38
HETATM   38  N31 NIL A 600      25.013   8.329  46.795  1.00 31.48    -0.188 N 
HETATM   39  C33 NIL A 600      23.943   7.673  46.183  1.00 33.06     0.727 A 
HETATM   40  N34 NIL A 600      22.964   8.591  45.973  1.00 33.13    -0.062 NA
HETATM   41  N40 NIL A 600      23.859   6.411  45.783  1.00 33.19    -0.075 NA
HETATM   42  C35 NIL A 600      21.859   8.186  45.335  1.00 35.47     0.089 A 
HETATM   43  C36 NIL A 600      21.719   6.907  44.924  1.00 31.87    -0.036 A 
HETATM   44  H36 NIL A 600      20.827   6.588  44.407  1.00  0.00     0.089 H 
HETATM   45  C38 NIL A 600      22.716   6.044  45.174  1.00 31.28     0.023 A 
HETATM   46  H38 NIL A 600      22.595   5.012  44.875  1.00  0.00     0.115 H 
HETATM   47  H31 NIL A 600      24.915   9.286  47.103  1.00  0.00     0.184 HD
BRANCH  42  48
HETATM   48  C41 NIL A 600      20.804   9.218  45.161  1.00 34.45     0.011 A 
HETATM   49  C42 NIL A 600      21.135  10.588  45.167  1.00 35.89     0.014 A 
HETATM   50  N44 NIL A 600      20.235  11.562  44.983  1.00 37.63    -0.272 NA
HETATM   51  H42 NIL A 600      22.166  10.866  45.328  1.00  0.00     0.116 H 
HETATM   52  C45 NIL A 600      18.950  11.200  44.829  1.00 38.74     0.002 A 
HETATM   53  C47 NIL A 600      18.519   9.876  44.788  1.00 36.18    -0.065 A 
HETATM   54  H45 NIL A 600      18.210  11.981  44.731  1.00  0.00     0.114 H 
HETATM   55  C49 NIL A 600      19.457   8.869  44.970  1.00 35.27    -0.068 A 
HETATM   56  H47 NIL A 600      17.479   9.638  44.617  1.00  0.00     0.085 H 
HETATM   57  H49 NIL A 600      19.157   7.831  44.966  1.00  0.00     0.085 H 
ENDBRANCH  42  48
ENDBRANCH   5  38
BRANCH   4  58
HETATM   58  C27 NIL A 600      27.075   8.747  44.844  1.00 33.15    -0.049 C 
HETATM   59 1H27 NIL A 600      26.329   9.519  45.035  1.00  0.00     0.033 H 
HETATM   60 2H27 NIL A 600      26.736   8.105  44.031  1.00  0.00     0.033 H 
HETATM   61 3H27 NIL A 600      28.020   9.214  44.567  1.00  0.00     0.033 H 
ENDBRANCH   4  58
TORSDOF 8
ENDMDL
MODEL 2
REMARK VINA RESULT:      -0.1      4.547      6.175
REMARK  8 active torsions:
REMARK  status: ('A' for Active; 'I' for Inactive)
REMARK       I    between atoms: C16_2  and  N14_3 
REMARK    1  A    between atoms: C16_2  and  C18_20 
REMARK    2  A    between atoms: C11_4  and  N14_3 
REMARK    3  A    between atoms: C8_6  and  N51_7 
REMARK    4  A    between atoms: C55_9  and  C58_10 
REMARK    5  A    between atoms: C2_16  and  C5_15 
REMARK    6  A    between atoms: C22_23  and  C27_24 
REMARK    7  A    between atoms: C21_25  and  N31_27 
REMARK       I    between atoms: C33_28  and  N31_27 
REMARK    8  A    between atoms: C35_32  and  C41_34 
ROOT
HETATM    1  C18 NIL A 600      25.121   6.614  51.875  1.00 31.05     0.034 A 
HETATM    2  C25 NIL A 600      25.944   5.712  51.185  1.00 32.21    -0.067 A 
HETATM    3  C23 NIL A 600      25.930   5.636  49.791  1.00 32.41    -0.074 A 
HETATM    4  C22 NIL A 600      25.042   6.387  49.039  1.00 32.00    -0.035 A 
HETATM    5  C21 NIL A 600      24.149   7.209  49.725  1.00 30.01     0.056 A 
HETATM    6  C19 NIL A 600      24.196   7.291  51.122  1.00 27.29    -0.041 A 
HETATM    7  H25 NIL A 600      26.603   5.064  51.743  1.00  0.00     0.085 H 
HETATM    8  H23 NIL A 600      26.624   4.977  49.289  1.00  0.00     0.084 H 
HETATM    9  H19 NIL A 600      23.474   7.914  51.628  1.00  0.00     0.088 H 
ENDROOT
BRANCH   1  10
HETATM   10  C16 NIL A 600      24.979   6.673  53.343  1.00 32.06     0.256 C 
HETATM   11  N14 NIL A 600      23.908   7.336  53.807  1.00 33.50    -0.323 N 
HETATM   12  H14 NIL A 600      23.253   7.687  53.124  1.00  0.00     0.169 HD
HETATM   13  O17 NIL A 600      25.946   6.321  53.972  1.00 32.17    -0.267 OA
BRANCH  11  14
HETATM   14  C11 NIL A 600      23.620   7.587  55.142  1.00 35.33     0.037 A 
HETATM   15  C9  NIL A 600      22.885   6.655  55.916  1.00 34.24    -0.031 A 
HETATM   16  C8  NIL A 600      22.599   6.894  57.263  1.00 36.11     0.042 A 
HETATM   17  H9  NIL A 600      22.538   5.742  55.455  1.00  0.00     0.090 H 
HETATM   18  C6  NIL A 600      22.977   8.102  57.840  1.00 33.87    -0.042 A 
HETATM   19  C5  NIL A 600      23.678   9.062  57.106  1.00 36.05     0.052 A 
HETATM   20  H6  NIL A 600      22.724   8.301  58.870  1.00  0.00     0.088 H 
HETATM   21  C12 NIL A 600      23.950   8.830  55.727  1.00 39.32    -0.042 A 
HETATM   22  H12 NIL A 600      24.408   9.603  55.129  1.00  0.00     0.088 H 
BRANCH  16  23
HETATM   23  N51 NIL A 600      21.909   5.958  58.047  1.00 40.77    -0.315 N 
HETATM   24  C52 NIL A 600      21.510   4.737  57.672  1.00 44.44     0.070 A 
HETATM   25  N54 NIL A 600      20.928   4.078  58.644  1.00 46.75    -0.247 NA
HETATM   26  H52 NIL A 600      21.652   4.338  56.678  1.00  0.00     0.144 H 
HETATM   27  C55 NIL A 600      20.982   4.860  59.744  1.00 45.13     0.048 A 
HETATM   28  C56 NIL A 600      21.564   6.028  59.395  1.00 45.15     0.010 A 
HETATM   29  H56 NIL A 600      21.734   6.872  60.049  1.00  0.00     0.115 H 
BRANCH  27  30
HETATM   30  C58 NIL A 600      20.424   4.467  61.090  1.00 44.78    -0.034 C 
HETATM   31 3H58 NIL A 600      20.724   5.202  61.837  1.00  0.00     0.035 H 
HETATM   32 1H58 NIL A 600      20.808   3.486  61.371  1.00  0.00     0.035 H 
HETATM   33 2H58 NIL A 600      19.336   4.428  61.035  1.00  0.00     0.035 H 
ENDBRANCH  27  30
ENDBRANCH  16  23
BRANCH  19  34
HETATM   34  C2  NIL A 600      24.092  10.363  57.714  1.00 35.22     0.417 C 
HETATM   35  F3  NIL A 600      24.684  11.142  56.816  1.00 37.00    -0.166 F 
HETATM   36  F4  NIL A 600      25.036  10.270  58.670  1.00 38.86    -0.166 F 
HETATM   37  F1  NIL A 600      23.070  10.983  58.340  1.00 34.70    -0.166 F 
ENDBRANCH  19  34
ENDBRANCH  11  14
ENDBRANCH   1  10
BRANCH   5  38
HETATM   38  N31 NIL A 600      23.356   8.096  48.986  1.00 31.48    -0.188 N 
HETATM   39  C33 NIL A 600      22.020   7.777  48.734  1.00 33.06     0.727 A 
HETATM   40  N34 NIL A 600      21.532   8.703  47.868  1.00 33.13    -0.062 NA
HETATM   41  N40 NIL A 600      21.317   6.737  49.164  1.00 33.19    -0.075 NA
HETATM   42  C35 NIL A 600      20.273   8.551  47.441  1.00 35.47     0.089 A 
HETATM   43  C36 NIL A 600      19.512   7.519  47.863  1.00 31.87    -0.036 A 
HETATM   44  H36 NIL A 600      18.498   7.400  47.512  1.00  0.00     0.089 H 
HETATM   45  C38 NIL A 600      20.046   6.645  48.731  1.00 31.28     0.023 A 
HETATM   46  H38 NIL A 600      19.430   5.835  49.095  1.00  0.00     0.115 H 
HETATM   47  H31 NIL A 600      23.748   8.960  48.639  1.00  0.00     0.184 HD
BRANCH  42  48
HETATM   48  C41 NIL A 600      19.775   9.609  46.523  1.00 34.45     0.011 A 
HETATM   49  C42 NIL A 600      20.675  10.361  45.742  1.00 35.89     0.014 A 
HETATM   50  N44 NIL A 600      20.286  11.303  44.875  1.00 37.63    -0.272 NA
HETATM   51  H42 NIL A 600      21.732  10.167  45.849  1.00  0.00     0.116 H 
HETATM   52  C45 NIL A 600      18.970  11.562  44.788  1.00 38.74     0.002 A 
HETATM   53  C47 NIL A 600      17.995  10.865  45.499  1.00 36.18    -0.065 A 
HETATM   54  H45 NIL A 600      18.650  12.356  44.129  1.00  0.00     0.114 H 
HETATM   55  C49 NIL A 600      18.404   9.882  46.391  1.00 35.27    -0.068 A 
HETATM   56  H47 NIL A 600      16.946  11.083  45.359  1.00  0.00     0.085 H 
HETATM   57  H49 NIL A 600      17.678   9.336  46.976  1.00  0.00     0.085 H 
ENDBRANCH  42  48
ENDBRANCH   5  38
BRANCH   4  58
HETATM   58  C27 NIL A 600      25.033   6.287  47.520  1.00 33.15    -0.049 C 
HETATM   59 1H27 NIL A 600      25.736   5.517  47.201  1.00  0.00     0.033 H 
HETATM   60 2H27 NIL A 600      25.324   7.246  47.091  1.00  0.00     0.033 H 
HETATM   61 3H27 NIL A 600      24.031   6.028  47.179  1.00  0.00     0.033 H 
ENDBRANCH   4  58
TORSDOF 8
ENDMDL
MODEL 3
REMARK VINA RESULT:      -0.1      4.568      6.682
REMARK  8 active torsions:
REMARK  status: ('A' for Active; 'I' for Inactive)
REMARK       I    between atoms: C16_2  and  N14_3 
REMARK    1  A    between atoms: C16_2  and  C18_20 
REMARK    2  A    between atoms: C11_4  and  N14_3 
REMARK    3  A    between atoms: C8_6  and  N51_7 
REMARK    4  A    between atoms: C55_9  and  C58_10 
REMARK    5  A    between atoms: C2_16  and  C5_15 
REMARK    6  A    between atoms: C22_23  and  C27_24 
REMARK    7  A    between atoms: C21_25  and  N31_27 
REMARK       I    between atoms: C33_28  and  N31_27 
REMARK    8  A    between atoms: C35_32  and  C41_34 
ROOT
HETATM    1  C18 NIL A 600      23.937   4.525  51.109  1.00 31.05     0.034 A 
HETATM    2  C25 NIL A 600      23.102   3.571  51.710  1.00 32.21    -0.067 A 
HETATM    3  C23 NIL A 600      21.746   3.487  51.389  1.00 32.41    -0.074 A 
HETATM    4  C22 NIL A 600      21.154   4.398  50.529  1.00 32.00    -0.035 A 
HETATM    5  C21 NIL A 600      21.955   5.413  50.009  1.00 30.01     0.056 A 
HETATM    6  C19 NIL A 600      23.320   5.464  50.323  1.00 27.29    -0.041 A 
HETATM    7  H25 NIL A 600      23.517   2.887  52.435  1.00  0.00     0.085 H 
HETATM    8  H23 NIL A 600      21.147   2.699  51.821  1.00  0.00     0.084 H 
HETATM    9  H19 NIL A 600      23.910   6.277  49.929  1.00  0.00     0.088 H 
ENDROOT
BRANCH   1  10
HETATM   10  C16 NIL A 600      25.345   4.767  51.480  1.00 32.06     0.256 C 
HETATM   11  N14 NIL A 600      25.830   5.986  51.197  1.00 33.50    -0.323 N 
HETATM   12  H14 NIL A 600      25.183   6.661  50.815  1.00  0.00     0.169 HD
HETATM   13  O17 NIL A 600      25.976   3.786  51.786  1.00 32.17    -0.267 OA
BRANCH  11  14
HETATM   14  C11 NIL A 600      27.141   6.405  51.381  1.00 35.33     0.037 A 
HETATM   15  C9  NIL A 600      27.569   6.936  52.623  1.00 34.24    -0.031 A 
HETATM   16  C8  NIL A 600      28.888   7.351  52.820  1.00 36.11     0.042 A 
HETATM   17  H9  NIL A 600      26.859   7.024  53.433  1.00  0.00     0.090 H 
HETATM   18  C6  NIL A 600      29.785   7.313  51.758  1.00 33.87    -0.042 A 
HETATM   19  C5  NIL A 600      29.399   6.823  50.507  1.00 36.05     0.052 A 
HETATM   20  H6  NIL A 600      30.794   7.667  51.900  1.00  0.00     0.088 H 
HETATM   21  C12 NIL A 600      28.048   6.422  50.298  1.00 39.32    -0.042 A 
HETATM   22  H12 NIL A 600      27.718   6.131  49.313  1.00  0.00     0.088 H 
BRANCH  16  23
HETATM   23  N51 NIL A 600      29.330   7.839  54.059  1.00 40.77    -0.315 N 
HETATM   24  C52 NIL A 600      28.616   7.924  55.188  1.00 44.44     0.070 A 
HETATM   25  N54 NIL A 600      29.320   8.380  56.194  1.00 46.75    -0.247 NA
HETATM   26  H52 NIL A 600      27.574   7.649  55.260  1.00  0.00     0.144 H 
HETATM   27  C55 NIL A 600      30.583   8.559  55.749  1.00 45.13     0.048 A 
HETATM   28  C56 NIL A 600      30.607   8.250  54.434  1.00 45.15     0.010 A 
HETATM   29  H56 NIL A 600      31.469   8.312  53.785  1.00  0.00     0.115 H 
BRANCH  27  30
HETATM   30  C58 NIL A 600      31.718   9.071  56.603  1.00 44.78    -0.034 C 
HETATM   31 3H58 NIL A 600      31.418  10.002  57.085  1.00  0.00     0.035 H 
HETATM   32 1H58 NIL A 600      32.592   9.251  55.977  1.00  0.00     0.035 H 
HETATM   33 2H58 NIL A 600      31.962   8.330  57.364  1.00  0.00     0.035 H 
ENDBRANCH  27  30
ENDBRANCH  16  23
BRANCH  19  34
HETATM   34  C2  NIL A 600      30.352   6.775  49.358  1.00 35.22     0.417 C 
HETATM   35  F3  NIL A 600      30.793   7.990  49.052  1.00 37.00    -0.166 F 
HETATM   36  F4  NIL A 600      29.816   6.371  48.190  1.00 38.86    -0.166 F 
HETATM   37  F1  NIL A 600      31.357   5.899  49.563  1.00 34.70    -0.166 F 
ENDBRANCH  19  34
ENDBRANCH  11  14
ENDBRANCH   1  10
BRANCH   5  38
HETATM   38  N31 NIL A 600      21.421   6.242  49.016  1.00 31.48    -0.188 N 
HETATM   39  C33 NIL A 600      20.979   7.522  49.355  1.00 33.06     0.727 A 
HETATM   40  N34 NIL A 600      20.360   8.046  48.265  1.00 33.13    -0.062 NA
HETATM   41  N40 NIL A 600      21.046   8.145  50.525  1.00 33.19    -0.075 NA
HETATM   42  C35 NIL A 600      19.801   9.256  48.389  1.00 35.47     0.089 A 
HETATM   43  C36 NIL A 600      19.859   9.936  49.554  1.00 31.87    -0.036 A 
HETATM   44  H36 NIL A 600      19.403  10.909  49.649  1.00  0.00     0.089 H 
HETATM   45  C38 NIL A 600      20.498   9.372  50.591  1.00 31.28     0.023 A 
HETATM   46  H38 NIL A 600      20.573   9.925  51.516  1.00  0.00     0.115 H 
HETATM   47  H31 NIL A 600      21.358   5.917  48.061  1.00  0.00     0.184 HD
BRANCH  42  48
HETATM   48  C41 NIL A 600      19.167   9.798  47.159  1.00 34.45     0.011 A 
HETATM   49  C42 NIL A 600      19.103   9.023  45.985  1.00 35.89     0.014 A 
HETATM   50  N44 NIL A 600      18.517   9.444  44.857  1.00 37.63    -0.272 NA
HETATM   51  H42 NIL A 600      19.548   8.039  45.995  1.00  0.00     0.116 H 
HETATM   52  C45 NIL A 600      18.008  10.687  44.848  1.00 38.74     0.002 A 
HETATM   53  C47 NIL A 600      18.001  11.529  45.959  1.00 36.18    -0.065 A 
HETATM   54  H45 NIL A 600      17.579  11.055  43.928  1.00  0.00     0.114 H 
HETATM   55  C49 NIL A 600      18.602  11.084  47.129  1.00 35.27    -0.068 A 
HETATM   56  H47 NIL A 600      17.539  12.504  45.911  1.00  0.00     0.085 H 
HETATM   57  H49 NIL A 600      18.636  11.717  48.004  1.00  0.00     0.085 H 
ENDBRANCH  42  48
ENDBRANCH   5  38
BRANCH   4  58
HETATM   58  C27 NIL A 600      19.671   4.299  50.196  1.00 33.15    -0.049 C 
HETATM   59 1H27 NIL A 600      19.512   3.493  49.479  1.00  0.00     0.033 H 
HETATM   60 2H27 NIL A 600      19.333   5.241  49.764  1.00  0.00     0.033 H 
HETATM   61 3H27 NIL A 600      19.107   4.095  51.105  1.00  0.00     0.033 H 
ENDBRANCH   4  58
TORSDOF 8
ENDMDL
